benzofuran_ester_20260928_0
     RDKit          3D

 24 25  0  0  0  0  0  0  0  0999 V2000
   -4.3985    0.4032   -0.0874 C   0  0  0  0  0  0  0  0  0  0  0  0
   -3.6243   -0.0729    1.1273 C   0  0  0  0  0  0  0  0  0  0  0  0
   -2.2169    0.0964    0.9149 O   0  0  0  0  0  0  0  0  0  0  0  0
   -1.5799   -0.9294    0.2800 C   0  0  0  0  0  0  0  0  0  0  0  0
   -2.1274   -1.9537   -0.1118 O   0  0  0  0  0  0  0  0  0  0  0  0
   -0.1738   -0.6362    0.1328 C   0  0  0  0  0  0  0  0  0  0  0  0
    0.8407   -1.3808   -0.4440 C   0  0  0  0  0  0  0  0  0  0  0  0
    2.0347   -0.6253   -0.3204 C   0  0  0  0  0  0  0  0  0  0  0  0
    3.3803   -0.8022   -0.6868 C   0  0  0  0  0  0  0  0  0  0  0  0
    4.2997    0.2115   -0.3792 C   0  0  0  0  0  0  0  0  0  0  0  0
    3.8947    1.3767    0.2779 C   0  0  0  0  0  0  0  0  0  0  0  0
    2.5604    1.5704    0.6502 C   0  0  0  0  0  0  0  0  0  0  0  0
    1.6720    0.5464    0.3311 C   0  0  0  0  0  0  0  0  0  0  0  0
    0.3399    0.5437    0.6064 O   0  0  0  0  0  0  0  0  0  0  0  0
   -5.4758    0.3334    0.0875 H   0  0  0  0  0  0  0  0  0  0  0  0
   -4.1451    1.4423   -0.3217 H   0  0  0  0  0  0  0  0  0  0  0  0
   -4.1487   -0.1924   -0.9711 H   0  0  0  0  0  0  0  0  0  0  0  0
   -3.8687   -1.1117    1.3775 H   0  0  0  0  0  0  0  0  0  0  0  0
   -3.8924    0.5374    1.9960 H   0  0  0  0  0  0  0  0  0  0  0  0
    0.7213   -2.3549   -0.8984 H   0  0  0  0  0  0  0  0  0  0  0  0
    3.7062   -1.7034   -1.1977 H   0  0  0  0  0  0  0  0  0  0  0  0
    5.3444    0.0874   -0.6572 H   0  0  0  0  0  0  0  0  0  0  0  0
    4.6286    2.1475    0.5045 H   0  0  0  0  0  0  0  0  0  0  0  0
    2.2285    2.4666    1.1598 H   0  0  0  0  0  0  0  0  0  0  0  0
  1  2  1  0
  2  3  1  0
  3  4  1  0
  4  5  2  0
  4  6  1  0
  6  7  2  0
  7  8  1  0
  8  9  2  0
  9 10  1  0
 10 11  2  0
 11 12  1  0
 12 13  2  0
 13 14  1  0
 14  6  1  0
 13  8  1  0
  1 15  1  0
  1 16  1  0
  1 17  1  0
  2 18  1  0
  2 19  1  0
  7 20  1  0
  9 21  1  0
 10 22  1  0
 11 23  1  0
 12 24  1  0
M  END
>  <coordinate_phase>  (1) 
MMFF94_after_optimization_status_retained

>  <molecule_id>  (1) 
benzofuran_ester

>  <seed>  (1) 
20260928

>  <conformer_id>  (1) 
0

>  <optimization_status>  (1) 
0

>  <energy_kcal_mol>  (1) 
26.064416322116998

>  <sasa_A2>  (1) 
402.4623141301631

>  <sasa_orientation_sd_A2>  (1) 
1.6306741978271477

>  <sasa_orientation_range_A2>  (1) 
7.237002171890538

>  <sasa_first_half_vs_all_abs_delta_A2>  (1) 
0.6135390187567396

>  <mass_weighted_Rg_A>  (1) 
2.987467323097715

>  <unweighted_Rg_A>  (1) 
3.6429760257280552

$$$$
benzofuran_ester_20260928_1
     RDKit          3D

 24 25  0  0  0  0  0  0  0  0999 V2000
   -4.3674   -0.5539    0.7768 C   0  0  0  0  0  0  0  0  0  0  0  0
   -3.6732   -0.9219   -0.5211 C   0  0  0  0  0  0  0  0  0  0  0  0
   -2.2494   -0.8773   -0.3514 O   0  0  0  0  0  0  0  0  0  0  0  0
   -1.6659    0.3438   -0.5447 C   0  0  0  0  0  0  0  0  0  0  0  0
   -2.2775    1.3634   -0.8391 O   0  0  0  0  0  0  0  0  0  0  0  0
   -0.2404    0.2321   -0.3446 C   0  0  0  0  0  0  0  0  0  0  0  0
    0.5765   -0.8362   -0.0114 C   0  0  0  0  0  0  0  0  0  0  0  0
    1.9061   -0.3442    0.0461 C   0  0  0  0  0  0  0  0  0  0  0  0
    3.1713   -0.8918    0.3216 C   0  0  0  0  0  0  0  0  0  0  0  0
    4.2922   -0.0496    0.2773 C   0  0  0  0  0  0  0  0  0  0  0  0
    4.1627    1.3070   -0.0334 C   0  0  0  0  0  0  0  0  0  0  0  0
    2.9121    1.8692   -0.3102 C   0  0  0  0  0  0  0  0  0  0  0  0
    1.8193    1.0076   -0.2583 C   0  0  0  0  0  0  0  0  0  0  0  0
    0.5269    1.3583   -0.4943 O   0  0  0  0  0  0  0  0  0  0  0  0
   -4.0336   -1.2071    1.5898 H   0  0  0  0  0  0  0  0  0  0  0  0
   -5.4526   -0.6434    0.6751 H   0  0  0  0  0  0  0  0  0  0  0  0
   -4.1277    0.4719    1.0740 H   0  0  0  0  0  0  0  0  0  0  0  0
   -3.9297   -1.9505   -0.7954 H   0  0  0  0  0  0  0  0  0  0  0  0
   -3.9983   -0.2796   -1.3475 H   0  0  0  0  0  0  0  0  0  0  0  0
    0.2463   -1.8499    0.1681 H   0  0  0  0  0  0  0  0  0  0  0  0
    3.2841   -1.9441    0.5642 H   0  0  0  0  0  0  0  0  0  0  0  0
    5.2776   -0.4599    0.4884 H   0  0  0  0  0  0  0  0  0  0  0  0
    5.0485    1.9384   -0.0609 H   0  0  0  0  0  0  0  0  0  0  0  0
    2.7921    2.9180   -0.5528 H   0  0  0  0  0  0  0  0  0  0  0  0
  1  2  1  0
  2  3  1  0
  3  4  1  0
  4  5  2  0
  4  6  1  0
  6  7  2  0
  7  8  1  0
  8  9  2  0
  9 10  1  0
 10 11  2  0
 11 12  1  0
 12 13  2  0
 13 14  1  0
 14  6  1  0
 13  8  1  0
  1 15  1  0
  1 16  1  0
  1 17  1  0
  2 18  1  0
  2 19  1  0
  7 20  1  0
  9 21  1  0
 10 22  1  0
 11 23  1  0
 12 24  1  0
M  END
>  <coordinate_phase>  (2) 
MMFF94_after_optimization_status_retained

>  <molecule_id>  (2) 
benzofuran_ester

>  <seed>  (2) 
20260928

>  <conformer_id>  (2) 
1

>  <optimization_status>  (2) 
0

>  <energy_kcal_mol>  (2) 
26.88074709552025

>  <sasa_A2>  (2) 
401.9490786705298

>  <sasa_orientation_sd_A2>  (2) 
1.2359832092192906

>  <sasa_orientation_range_A2>  (2) 
5.175672857409381

>  <sasa_first_half_vs_all_abs_delta_A2>  (2) 
0.21417467591237482

>  <mass_weighted_Rg_A>  (2) 
3.016761993300582

>  <unweighted_Rg_A>  (2) 
3.6708992215097522

$$$$
benzofuran_ester_20260928_2
     RDKit          3D

 24 25  0  0  0  0  0  0  0  0999 V2000
    4.3900   -0.5373   -0.0849 C   0  0  0  0  0  0  0  0  0  0  0  0
    3.6509    0.5984   -0.7674 C   0  0  0  0  0  0  0  0  0  0  0  0
    2.2379    0.3597   -0.7348 O   0  0  0  0  0  0  0  0  0  0  0  0
    1.5839    0.7905    0.3822 C   0  0  0  0  0  0  0  0  0  0  0  0
    2.1208    1.3481    1.3326 O   0  0  0  0  0  0  0  0  0  0  0  0
    0.1739    0.4941    0.2872 C   0  0  0  0  0  0  0  0  0  0  0  0
   -0.8560    0.7455    1.1773 C   0  0  0  0  0  0  0  0  0  0  0  0
   -2.0466    0.2470    0.5894 C   0  0  0  0  0  0  0  0  0  0  0  0
   -3.4019    0.1857    0.9575 C   0  0  0  0  0  0  0  0  0  0  0  0
   -4.3129   -0.4086    0.0718 C   0  0  0  0  0  0  0  0  0  0  0  0
   -3.8902   -0.9315   -1.1535 C   0  0  0  0  0  0  0  0  0  0  0  0
   -2.5460   -0.8797   -1.5368 C   0  0  0  0  0  0  0  0  0  0  0  0
   -1.6663   -0.2838   -0.6364 C   0  0  0  0  0  0  0  0  0  0  0  0
   -0.3269   -0.1366   -0.8226 O   0  0  0  0  0  0  0  0  0  0  0  0
    4.1156   -0.6057    0.9725 H   0  0  0  0  0  0  0  0  0  0  0  0
    4.1292   -1.4965   -0.5442 H   0  0  0  0  0  0  0  0  0  0  0  0
    5.4719   -0.3942   -0.1563 H   0  0  0  0  0  0  0  0  0  0  0  0
    3.9031    1.5672   -0.3211 H   0  0  0  0  0  0  0  0  0  0  0  0
    3.9432    0.6456   -1.8216 H   0  0  0  0  0  0  0  0  0  0  0  0
   -0.7488    1.2328    2.1368 H   0  0  0  0  0  0  0  0  0  0  0  0
   -3.7415    0.5888    1.9069 H   0  0  0  0  0  0  0  0  0  0  0  0
   -5.3650   -0.4626    0.3442 H   0  0  0  0  0  0  0  0  0  0  0  0
   -4.6179   -1.3872   -1.8220 H   0  0  0  0  0  0  0  0  0  0  0  0
   -2.2004   -1.2797   -2.4821 H   0  0  0  0  0  0  0  0  0  0  0  0
  1  2  1  0
  2  3  1  0
  3  4  1  0
  4  5  2  0
  4  6  1  0
  6  7  2  0
  7  8  1  0
  8  9  2  0
  9 10  1  0
 10 11  2  0
 11 12  1  0
 12 13  2  0
 13 14  1  0
 14  6  1  0
 13  8  1  0
  1 15  1  0
  1 16  1  0
  1 17  1  0
  2 18  1  0
  2 19  1  0
  7 20  1  0
  9 21  1  0
 10 22  1  0
 11 23  1  0
 12 24  1  0
M  END
>  <coordinate_phase>  (3) 
MMFF94_after_optimization_status_retained

>  <molecule_id>  (3) 
benzofuran_ester

>  <seed>  (3) 
20260928

>  <conformer_id>  (3) 
2

>  <optimization_status>  (3) 
0

>  <energy_kcal_mol>  (3) 
26.064416330324278

>  <sasa_A2>  (3) 
402.39913301748396

>  <sasa_orientation_sd_A2>  (3) 
1.317731314182682

>  <sasa_orientation_range_A2>  (3) 
5.6773653857248405

>  <sasa_first_half_vs_all_abs_delta_A2>  (3) 
0.10982709438599159

>  <mass_weighted_Rg_A>  (3) 
2.987467312185879

>  <unweighted_Rg_A>  (3) 
3.6429757365063145

$$$$
benzofuran_ester_20260928_3
     RDKit          3D

 24 25  0  0  0  0  0  0  0  0999 V2000
    4.4671    0.7403   -0.4019 C   0  0  0  0  0  0  0  0  0  0  0  0
    3.6913   -0.4721    0.0749 C   0  0  0  0  0  0  0  0  0  0  0  0
    2.2953   -0.1669    0.0001 O   0  0  0  0  0  0  0  0  0  0  0  0
    1.4748   -1.1796    0.4033 C   0  0  0  0  0  0  0  0  0  0  0  0
    1.8653   -2.2713    0.8017 O   0  0  0  0  0  0  0  0  0  0  0  0
    0.0907   -0.7839    0.2942 C   0  0  0  0  0  0  0  0  0  0  0  0
   -1.0668   -1.4834    0.5895 C   0  0  0  0  0  0  0  0  0  0  0  0
   -2.1582   -0.6255    0.2987 C   0  0  0  0  0  0  0  0  0  0  0  0
   -3.5590   -0.7180    0.3732 C   0  0  0  0  0  0  0  0  0  0  0  0
   -4.3275    0.3876   -0.0197 C   0  0  0  0  0  0  0  0  0  0  0  0
   -3.7213    1.5610   -0.4771 C   0  0  0  0  0  0  0  0  0  0  0  0
   -2.3292    1.6715   -0.5581 C   0  0  0  0  0  0  0  0  0  0  0  0
   -1.5940    0.5574   -0.1611 C   0  0  0  0  0  0  0  0  0  0  0  0
   -0.2368    0.4658   -0.1653 O   0  0  0  0  0  0  0  0  0  0  0  0
    5.5441    0.5546   -0.3628 H   0  0  0  0  0  0  0  0  0  0  0  0
    4.2360    1.6136    0.2170 H   0  0  0  0  0  0  0  0  0  0  0  0
    4.1892    0.9959   -1.4298 H   0  0  0  0  0  0  0  0  0  0  0  0
    3.9176   -1.3312   -0.5666 H   0  0  0  0  0  0  0  0  0  0  0  0
    3.9653   -0.7020    1.1107 H   0  0  0  0  0  0  0  0  0  0  0  0
   -1.1069   -2.4949    0.9700 H   0  0  0  0  0  0  0  0  0  0  0  0
   -4.0407   -1.6246    0.7269 H   0  0  0  0  0  0  0  0  0  0  0  0
   -5.4129    0.3295    0.0329 H   0  0  0  0  0  0  0  0  0  0  0  0
   -4.3412    2.4039   -0.7757 H   0  0  0  0  0  0  0  0  0  0  0  0
   -1.8422    2.5726   -0.9100 H   0  0  0  0  0  0  0  0  0  0  0  0
  1  2  1  0
  2  3  1  0
  3  4  1  0
  4  5  2  0
  4  6  1  0
  6  7  2  0
  7  8  1  0
  8  9  2  0
  9 10  1  0
 10 11  2  0
 11 12  1  0
 12 13  2  0
 13 14  1  0
 14  6  1  0
 13  8  1  0
  1 15  1  0
  1 16  1  0
  1 17  1  0
  2 18  1  0
  2 19  1  0
  7 20  1  0
  9 21  1  0
 10 22  1  0
 11 23  1  0
 12 24  1  0
M  END
>  <coordinate_phase>  (4) 
MMFF94_after_optimization_status_retained

>  <molecule_id>  (4) 
benzofuran_ester

>  <seed>  (4) 
20260928

>  <conformer_id>  (4) 
3

>  <optimization_status>  (4) 
0

>  <energy_kcal_mol>  (4) 
25.606610941373855

>  <sasa_A2>  (4) 
406.6354360407572

>  <sasa_orientation_sd_A2>  (4) 
1.8868532119579071

>  <sasa_orientation_range_A2>  (4) 
8.490432968922562

>  <sasa_first_half_vs_all_abs_delta_A2>  (4) 
0.5393161287688031

>  <mass_weighted_Rg_A>  (4) 
3.0077843039877665

>  <unweighted_Rg_A>  (4) 
3.670752201767825

$$$$
benzofuran_ester_20260928_4
     RDKit          3D

 24 25  0  0  0  0  0  0  0  0999 V2000
    4.4554   -0.3816   -0.0629 C   0  0  0  0  0  0  0  0  0  0  0  0
    3.7021    0.9351   -0.0372 C   0  0  0  0  0  0  0  0  0  0  0  0
    2.3046    0.7110   -0.2713 O   0  0  0  0  0  0  0  0  0  0  0  0
    1.5563    0.4183    0.8347 C   0  0  0  0  0  0  0  0  0  0  0  0
    2.0054    0.3359    1.9713 O   0  0  0  0  0  0  0  0  0  0  0  0
    0.1796    0.2238    0.4455 C   0  0  0  0  0  0  0  0  0  0  0  0
   -0.4628    0.2810   -0.7807 C   0  0  0  0  0  0  0  0  0  0  0  0
   -1.8338   -0.0011   -0.5484 C   0  0  0  0  0  0  0  0  0  0  0  0
   -2.9902   -0.0988   -1.3418 C   0  0  0  0  0  0  0  0  0  0  0  0
   -4.2083   -0.4086   -0.7191 C   0  0  0  0  0  0  0  0  0  0  0  0
   -4.2797   -0.6174    0.6611 C   0  0  0  0  0  0  0  0  0  0  0  0
   -3.1397   -0.5245    1.4663 C   0  0  0  0  0  0  0  0  0  0  0  0
   -1.9461   -0.2156    0.8188 C   0  0  0  0  0  0  0  0  0  0  0  0
   -0.7345   -0.0808    1.4209 O   0  0  0  0  0  0  0  0  0  0  0  0
    4.2798   -0.9064   -1.0077 H   0  0  0  0  0  0  0  0  0  0  0  0
    4.1147   -1.0454    0.7380 H   0  0  0  0  0  0  0  0  0  0  0  0
    5.5300   -0.2159    0.0545 H   0  0  0  0  0  0  0  0  0  0  0  0
    3.8692    1.4762    0.9012 H   0  0  0  0  0  0  0  0  0  0  0  0
    4.0617    1.5793   -0.8463 H   0  0  0  0  0  0  0  0  0  0  0  0
    0.0077    0.5009   -1.7289 H   0  0  0  0  0  0  0  0  0  0  0  0
   -2.9469    0.0614   -2.4149 H   0  0  0  0  0  0  0  0  0  0  0  0
   -5.1115   -0.4873   -1.3210 H   0  0  0  0  0  0  0  0  0  0  0  0
   -5.2374   -0.8565    1.1191 H   0  0  0  0  0  0  0  0  0  0  0  0
   -3.1754   -0.6830    2.5372 H   0  0  0  0  0  0  0  0  0  0  0  0
  1  2  1  0
  2  3  1  0
  3  4  1  0
  4  5  2  0
  4  6  1  0
  6  7  2  0
  7  8  1  0
  8  9  2  0
  9 10  1  0
 10 11  2  0
 11 12  1  0
 12 13  2  0
 13 14  1  0
 14  6  1  0
 13  8  1  0
  1 15  1  0
  1 16  1  0
  1 17  1  0
  2 18  1  0
  2 19  1  0
  7 20  1  0
  9 21  1  0
 10 22  1  0
 11 23  1  0
 12 24  1  0
M  END
>  <coordinate_phase>  (5) 
MMFF94_after_optimization_status_retained

>  <molecule_id>  (5) 
benzofuran_ester

>  <seed>  (5) 
20260928

>  <conformer_id>  (5) 
4

>  <optimization_status>  (5) 
0

>  <energy_kcal_mol>  (5) 
26.88074709531471

>  <sasa_A2>  (5) 
402.53147674768525

>  <sasa_orientation_sd_A2>  (5) 
2.2185699578244242

>  <sasa_orientation_range_A2>  (5) 
9.86333075346846

>  <sasa_first_half_vs_all_abs_delta_A2>  (5) 
0.14271393268569454

>  <mass_weighted_Rg_A>  (5) 
3.0167622319492198

>  <unweighted_Rg_A>  (5) 
3.670899655804588

$$$$
benzofuran_ester_20260928_5
     RDKit          3D

 24 25  0  0  0  0  0  0  0  0999 V2000
    4.5784    0.7174   -0.6111 C   0  0  0  0  0  0  0  0  0  0  0  0
    3.7465   -0.3592    0.0583 C   0  0  0  0  0  0  0  0  0  0  0  0
    2.3642   -0.0297   -0.1194 O   0  0  0  0  0  0  0  0  0  0  0  0
    1.4991   -0.9274    0.4417 C   0  0  0  0  0  0  0  0  0  0  0  0
    1.8488   -1.9329    1.0482 O   0  0  0  0  0  0  0  0  0  0  0  0
    0.1406   -0.5007    0.2045 C   0  0  0  0  0  0  0  0  0  0  0  0
   -0.3940    0.5950   -0.4538 C   0  0  0  0  0  0  0  0  0  0  0  0
   -1.8060    0.4883   -0.3653 C   0  0  0  0  0  0  0  0  0  0  0  0
   -2.9029    1.2473   -0.8092 C   0  0  0  0  0  0  0  0  0  0  0  0
   -4.1972    0.7952   -0.5124 C   0  0  0  0  0  0  0  0  0  0  0  0
   -4.4009   -0.3843    0.2092 C   0  0  0  0  0  0  0  0  0  0  0  0
   -3.3218   -1.1523    0.6589 C   0  0  0  0  0  0  0  0  0  0  0  0
   -2.0501   -0.6773    0.3485 C   0  0  0  0  0  0  0  0  0  0  0  0
   -0.8789   -1.2759    0.6935 O   0  0  0  0  0  0  0  0  0  0  0  0
    4.3377    0.7834   -1.6774 H   0  0  0  0  0  0  0  0  0  0  0  0
    5.6465    0.5094   -0.5023 H   0  0  0  0  0  0  0  0  0  0  0  0
    4.3627    1.6983   -0.1748 H   0  0  0  0  0  0  0  0  0  0  0  0
    3.9583   -1.3300   -0.4036 H   0  0  0  0  0  0  0  0  0  0  0  0
    3.9838   -0.3978    1.1273 H   0  0  0  0  0  0  0  0  0  0  0  0
    0.1734    1.3768   -0.9393 H   0  0  0  0  0  0  0  0  0  0  0  0
   -2.7569    2.1652   -1.3706 H   0  0  0  0  0  0  0  0  0  0  0  0
   -5.0555    1.3728   -0.8498 H   0  0  0  0  0  0  0  0  0  0  0  0
   -5.4155   -0.7126    0.4260 H   0  0  0  0  0  0  0  0  0  0  0  0
   -3.4600   -2.0689    1.2194 H   0  0  0  0  0  0  0  0  0  0  0  0
  1  2  1  0
  2  3  1  0
  3  4  1  0
  4  5  2  0
  4  6  1  0
  6  7  2  0
  7  8  1  0
  8  9  2  0
  9 10  1  0
 10 11  2  0
 11 12  1  0
 12 13  2  0
 13 14  1  0
 14  6  1  0
 13  8  1  0
  1 15  1  0
  1 16  1  0
  1 17  1  0
  2 18  1  0
  2 19  1  0
  7 20  1  0
  9 21  1  0
 10 22  1  0
 11 23  1  0
 12 24  1  0
M  END
>  <coordinate_phase>  (6) 
MMFF94_after_optimization_status_retained

>  <molecule_id>  (6) 
benzofuran_ester

>  <seed>  (6) 
20260928

>  <conformer_id>  (6) 
5

>  <optimization_status>  (6) 
0

>  <energy_kcal_mol>  (6) 
26.38488238289317

>  <sasa_A2>  (6) 
405.76945771430957

>  <sasa_orientation_sd_A2>  (6) 
1.8431561775898546

>  <sasa_orientation_range_A2>  (6) 
10.088104298486257

>  <sasa_first_half_vs_all_abs_delta_A2>  (6) 
0.36030405279200295

>  <mass_weighted_Rg_A>  (6) 
3.0513119871230034

>  <unweighted_Rg_A>  (6) 
3.7145930136230523

$$$$
benzofuran_ester_20260929_6
     RDKit          3D

 24 25  0  0  0  0  0  0  0  0999 V2000
    4.2608   -0.1246   -0.9614 C   0  0  0  0  0  0  0  0  0  0  0  0
    3.5647   -1.1476   -0.0836 C   0  0  0  0  0  0  0  0  0  0  0  0
    2.1529   -0.9008   -0.0600 O   0  0  0  0  0  0  0  0  0  0  0  0
    1.7170   -0.0078    0.8747 C   0  0  0  0  0  0  0  0  0  0  0  0
    2.4430    0.5813    1.6674 O   0  0  0  0  0  0  0  0  0  0  0  0
    0.2837    0.1466    0.7953 C   0  0  0  0  0  0  0  0  0  0  0  0
   -0.5742    0.9389    1.5387 C   0  0  0  0  0  0  0  0  0  0  0  0
   -1.8848    0.7100    1.0470 C   0  0  0  0  0  0  0  0  0  0  0  0
   -3.1722    1.1839    1.3541 C   0  0  0  0  0  0  0  0  0  0  0  0
   -4.2609    0.7002    0.6137 C   0  0  0  0  0  0  0  0  0  0  0  0
   -4.0785   -0.2338   -0.4100 C   0  0  0  0  0  0  0  0  0  0  0  0
   -2.8052   -0.7167   -0.7297 C   0  0  0  0  0  0  0  0  0  0  0  0
   -1.7450   -0.2177    0.0229 C   0  0  0  0  0  0  0  0  0  0  0  0
   -0.4377   -0.5603   -0.1321 O   0  0  0  0  0  0  0  0  0  0  0  0
    4.1337    0.8869   -0.5629 H   0  0  0  0  0  0  0  0  0  0  0  0
    5.3307   -0.3395   -1.0337 H   0  0  0  0  0  0  0  0  0  0  0  0
    3.8311   -0.1264   -1.9686 H   0  0  0  0  0  0  0  0  0  0  0  0
    3.7074   -2.1490   -0.5029 H   0  0  0  0  0  0  0  0  0  0  0  0
    3.9851   -1.1608    0.9285 H   0  0  0  0  0  0  0  0  0  0  0  0
   -0.2775    1.6014    2.3403 H   0  0  0  0  0  0  0  0  0  0  0  0
   -3.3257    1.9095    2.1472 H   0  0  0  0  0  0  0  0  0  0  0  0
   -5.2629    1.0587    0.8409 H   0  0  0  0  0  0  0  0  0  0  0  0
   -4.9405   -0.5925   -0.9688 H   0  0  0  0  0  0  0  0  0  0  0  0
   -2.6449   -1.4403   -1.5195 H   0  0  0  0  0  0  0  0  0  0  0  0
  1  2  1  0
  2  3  1  0
  3  4  1  0
  4  5  2  0
  4  6  1  0
  6  7  2  0
  7  8  1  0
  8  9  2  0
  9 10  1  0
 10 11  2  0
 11 12  1  0
 12 13  2  0
 13 14  1  0
 14  6  1  0
 13  8  1  0
  1 15  1  0
  1 16  1  0
  1 17  1  0
  2 18  1  0
  2 19  1  0
  7 20  1  0
  9 21  1  0
 10 22  1  0
 11 23  1  0
 12 24  1  0
M  END
>  <coordinate_phase>  (7) 
MMFF94_after_optimization_status_retained

>  <molecule_id>  (7) 
benzofuran_ester

>  <seed>  (7) 
20260929

>  <conformer_id>  (7) 
6

>  <optimization_status>  (7) 
0

>  <energy_kcal_mol>  (7) 
26.064416324749015

>  <sasa_A2>  (7) 
402.2591453201412

>  <sasa_orientation_sd_A2>  (7) 
2.282542271064625

>  <sasa_orientation_range_A2>  (7) 
10.069098912629045

>  <sasa_first_half_vs_all_abs_delta_A2>  (7) 
0.14758628803343754

>  <mass_weighted_Rg_A>  (7) 
2.987466439692945

>  <unweighted_Rg_A>  (7) 
3.642974666560215

$$$$
benzofuran_ester_20260929_7
     RDKit          3D

 24 25  0  0  0  0  0  0  0  0999 V2000
   -4.4725   -0.0410    0.0809 C   0  0  0  0  0  0  0  0  0  0  0  0
   -3.6119    1.1606   -0.2615 C   0  0  0  0  0  0  0  0  0  0  0  0
   -2.2394    0.7650   -0.3956 O   0  0  0  0  0  0  0  0  0  0  0  0
   -1.5111    0.7449    0.7612 C   0  0  0  0  0  0  0  0  0  0  0  0
   -1.9582    1.0321    1.8648 O   0  0  0  0  0  0  0  0  0  0  0  0
   -0.1580    0.3343    0.4697 C   0  0  0  0  0  0  0  0  0  0  0  0
    0.4792   -0.0186   -0.7090 C   0  0  0  0  0  0  0  0  0  0  0  0
    1.8233   -0.3324   -0.3804 C   0  0  0  0  0  0  0  0  0  0  0  0
    2.9624   -0.7496   -1.0908 C   0  0  0  0  0  0  0  0  0  0  0  0
    4.1544   -0.9643   -0.3832 C   0  0  0  0  0  0  0  0  0  0  0  0
    4.2169   -0.7698    0.9995 C   0  0  0  0  0  0  0  0  0  0  0  0
    3.0939   -0.3550    1.7228 C   0  0  0  0  0  0  0  0  0  0  0  0
    1.9261   -0.1503    0.9922 C   0  0  0  0  0  0  0  0  0  0  0  0
    0.7338    0.2515    1.5077 O   0  0  0  0  0  0  0  0  0  0  0  0
   -4.1832   -0.4701    1.0454 H   0  0  0  0  0  0  0  0  0  0  0  0
   -5.5288    0.2387    0.1260 H   0  0  0  0  0  0  0  0  0  0  0  0
   -4.3474   -0.8294   -0.6686 H   0  0  0  0  0  0  0  0  0  0  0  0
   -3.9217    1.5702   -1.2286 H   0  0  0  0  0  0  0  0  0  0  0  0
   -3.7273    1.9619    0.4773 H   0  0  0  0  0  0  0  0  0  0  0  0
    0.0225   -0.0449   -1.6886 H   0  0  0  0  0  0  0  0  0  0  0  0
    2.9258   -0.9040   -2.1649 H   0  0  0  0  0  0  0  0  0  0  0  0
    5.0439   -1.2874   -0.9203 H   0  0  0  0  0  0  0  0  0  0  0  0
    5.1543   -0.9435    1.5242 H   0  0  0  0  0  0  0  0  0  0  0  0
    3.1231   -0.1990    2.7943 H   0  0  0  0  0  0  0  0  0  0  0  0
  1  2  1  0
  2  3  1  0
  3  4  1  0
  4  5  2  0
  4  6  1  0
  6  7  2  0
  7  8  1  0
  8  9  2  0
  9 10  1  0
 10 11  2  0
 11 12  1  0
 12 13  2  0
 13 14  1  0
 14  6  1  0
 13  8  1  0
  1 15  1  0
  1 16  1  0
  1 17  1  0
  2 18  1  0
  2 19  1  0
  7 20  1  0
  9 21  1  0
 10 22  1  0
 11 23  1  0
 12 24  1  0
M  END
>  <coordinate_phase>  (8) 
MMFF94_after_optimization_status_retained

>  <molecule_id>  (8) 
benzofuran_ester

>  <seed>  (8) 
20260929

>  <conformer_id>  (8) 
7

>  <optimization_status>  (8) 
0

>  <energy_kcal_mol>  (8) 
26.88074709649319

>  <sasa_A2>  (8) 
402.99780673840706

>  <sasa_orientation_sd_A2>  (8) 
1.8271768532235497

>  <sasa_orientation_range_A2>  (8) 
6.492298663464453

>  <sasa_first_half_vs_all_abs_delta_A2>  (8) 
0.5309999728629009

>  <mass_weighted_Rg_A>  (8) 
3.0167620884018347

>  <unweighted_Rg_A>  (8) 
3.6708994060979827

$$$$
benzofuran_ester_20260929_8
     RDKit          3D

 24 25  0  0  0  0  0  0  0  0999 V2000
    4.3816   -0.5656    0.3208 C   0  0  0  0  0  0  0  0  0  0  0  0
    3.5800   -0.3932   -0.9557 C   0  0  0  0  0  0  0  0  0  0  0  0
    2.1764   -0.4221   -0.6664 O   0  0  0  0  0  0  0  0  0  0  0  0
    1.6129    0.7700   -0.3163 C   0  0  0  0  0  0  0  0  0  0  0  0
    2.2216    1.8305   -0.2323 O   0  0  0  0  0  0  0  0  0  0  0  0
    0.2023    0.6042   -0.0562 C   0  0  0  0  0  0  0  0  0  0  0  0
   -0.7529    1.5309    0.3249 C   0  0  0  0  0  0  0  0  0  0  0  0
   -1.9838    0.8362    0.4439 C   0  0  0  0  0  0  0  0  0  0  0  0
   -3.3038    1.1783    0.7857 C   0  0  0  0  0  0  0  0  0  0  0  0
   -4.2797    0.1708    0.7901 C   0  0  0  0  0  0  0  0  0  0  0  0
   -3.9550   -1.1487    0.4628 C   0  0  0  0  0  0  0  0  0  0  0  0
   -2.6472   -1.5079    0.1202 C   0  0  0  0  0  0  0  0  0  0  0  0
   -1.7013   -0.4857    0.1249 C   0  0  0  0  0  0  0  0  0  0  0  0
   -0.3830   -0.6298   -0.1776 O   0  0  0  0  0  0  0  0  0  0  0  0
    4.1956    0.2588    1.0164 H   0  0  0  0  0  0  0  0  0  0  0  0
    5.4528   -0.6043    0.1038 H   0  0  0  0  0  0  0  0  0  0  0  0
    4.0917   -1.4878    0.8352 H   0  0  0  0  0  0  0  0  0  0  0  0
    3.8603    0.5248   -1.4849 H   0  0  0  0  0  0  0  0  0  0  0  0
    3.7843   -1.2287   -1.6333 H   0  0  0  0  0  0  0  0  0  0  0  0
   -0.5712    2.5833    0.4945 H   0  0  0  0  0  0  0  0  0  0  0  0
   -3.5674    2.2001    1.0417 H   0  0  0  0  0  0  0  0  0  0  0  0
   -5.3054    0.4218    1.0528 H   0  0  0  0  0  0  0  0  0  0  0  0
   -4.7315   -1.9109    0.4742 H   0  0  0  0  0  0  0  0  0  0  0  0
   -2.3773   -2.5250   -0.1361 H   0  0  0  0  0  0  0  0  0  0  0  0
  1  2  1  0
  2  3  1  0
  3  4  1  0
  4  5  2  0
  4  6  1  0
  6  7  2  0
  7  8  1  0
  8  9  2  0
  9 10  1  0
 10 11  2  0
 11 12  1  0
 12 13  2  0
 13 14  1  0
 14  6  1  0
 13  8  1  0
  1 15  1  0
  1 16  1  0
  1 17  1  0
  2 18  1  0
  2 19  1  0
  7 20  1  0
  9 21  1  0
 10 22  1  0
 11 23  1  0
 12 24  1  0
M  END
>  <coordinate_phase>  (9) 
MMFF94_after_optimization_status_retained

>  <molecule_id>  (9) 
benzofuran_ester

>  <seed>  (9) 
20260929

>  <conformer_id>  (9) 
8

>  <optimization_status>  (9) 
0

>  <energy_kcal_mol>  (9) 
26.064416322987512

>  <sasa_A2>  (9) 
402.2671438966792

>  <sasa_orientation_sd_A2>  (9) 
2.779234626302008

>  <sasa_orientation_range_A2>  (9) 
14.82531461428448

>  <sasa_first_half_vs_all_abs_delta_A2>  (9) 
0.5804796360858404

>  <mass_weighted_Rg_A>  (9) 
2.987467164635688

>  <unweighted_Rg_A>  (9) 
3.6429757431715815

$$$$
benzofuran_ester_20260929_9
     RDKit          3D

 24 25  0  0  0  0  0  0  0  0999 V2000
    4.4701   -0.1115   -0.2234 C   0  0  0  0  0  0  0  0  0  0  0  0
    3.6550    0.9944    0.4204 C   0  0  0  0  0  0  0  0  0  0  0  0
    2.2733    0.8683    0.0552 O   0  0  0  0  0  0  0  0  0  0  0  0
    1.5230    0.0423    0.8450 C   0  0  0  0  0  0  0  0  0  0  0  0
    1.9581   -0.5758    1.8088 O   0  0  0  0  0  0  0  0  0  0  0  0
    0.1632    0.0192    0.3602 C   0  0  0  0  0  0  0  0  0  0  0  0
   -0.4625    0.6532   -0.7010 C   0  0  0  0  0  0  0  0  0  0  0  0
   -1.8219    0.2471   -0.6884 C   0  0  0  0  0  0  0  0  0  0  0  0
   -2.9602    0.5154   -1.4687 C   0  0  0  0  0  0  0  0  0  0  0  0
   -4.1716   -0.1025   -1.1247 C   0  0  0  0  0  0  0  0  0  0  0  0
   -4.2540   -0.9684   -0.0306 C   0  0  0  0  0  0  0  0  0  0  0  0
   -3.1321   -1.2471    0.7569 C   0  0  0  0  0  0  0  0  0  0  0  0
   -1.9448   -0.6186    0.3901 C   0  0  0  0  0  0  0  0  0  0  0  0
   -0.7502   -0.7582    1.0244 O   0  0  0  0  0  0  0  0  0  0  0  0
    4.1491   -1.0953    0.1330 H   0  0  0  0  0  0  0  0  0  0  0  0
    5.5337    0.0106   -0.0002 H   0  0  0  0  0  0  0  0  0  0  0  0
    4.3340   -0.1064   -1.3099 H   0  0  0  0  0  0  0  0  0  0  0  0
    3.7819    1.0064    1.5090 H   0  0  0  0  0  0  0  0  0  0  0  0
    3.9959    1.9659    0.0479 H   0  0  0  0  0  0  0  0  0  0  0  0
    0.0115    1.3286   -1.3995 H   0  0  0  0  0  0  0  0  0  0  0  0
   -2.9082    1.1862   -2.3209 H   0  0  0  0  0  0  0  0  0  0  0  0
   -5.0607    0.0960   -1.7199 H   0  0  0  0  0  0  0  0  0  0  0  0
   -5.2061   -1.4346    0.2145 H   0  0  0  0  0  0  0  0  0  0  0  0
   -3.1766   -1.9151    1.6084 H   0  0  0  0  0  0  0  0  0  0  0  0
  1  2  1  0
  2  3  1  0
  3  4  1  0
  4  5  2  0
  4  6  1  0
  6  7  2  0
  7  8  1  0
  8  9  2  0
  9 10  1  0
 10 11  2  0
 11 12  1  0
 12 13  2  0
 13 14  1  0
 14  6  1  0
 13  8  1  0
  1 15  1  0
  1 16  1  0
  1 17  1  0
  2 18  1  0
  2 19  1  0
  7 20  1  0
  9 21  1  0
 10 22  1  0
 11 23  1  0
 12 24  1  0
M  END
>  <coordinate_phase>  (10) 
MMFF94_after_optimization_status_retained

>  <molecule_id>  (10) 
benzofuran_ester

>  <seed>  (10) 
20260929

>  <conformer_id>  (10) 
9

>  <optimization_status>  (10) 
0

>  <energy_kcal_mol>  (10) 
26.880747097095643

>  <sasa_A2>  (10) 
402.0502082290789

>  <sasa_orientation_sd_A2>  (10) 
1.831104183924113

>  <sasa_orientation_range_A2>  (10) 
6.630936949011414

>  <sasa_first_half_vs_all_abs_delta_A2>  (10) 
0.394254661072182

>  <mass_weighted_Rg_A>  (10) 
3.0167626864478985

>  <unweighted_Rg_A>  (10) 
3.670900439957733

$$$$
benzofuran_ester_20260929_10
     RDKit          3D

 24 25  0  0  0  0  0  0  0  0999 V2000
   -4.4543    0.8910    0.0143 C   0  0  0  0  0  0  0  0  0  0  0  0
   -3.6992   -0.4119    0.1917 C   0  0  0  0  0  0  0  0  0  0  0  0
   -2.2981   -0.1220    0.1756 O   0  0  0  0  0  0  0  0  0  0  0  0
   -1.4949   -1.2144    0.3268 C   0  0  0  0  0  0  0  0  0  0  0  0
   -1.9040   -2.3616    0.4670 O   0  0  0  0  0  0  0  0  0  0  0  0
   -0.1041   -0.8283    0.2983 C   0  0  0  0  0  0  0  0  0  0  0  0
    1.0414   -1.5970    0.4134 C   0  0  0  0  0  0  0  0  0  0  0  0
    2.1474   -0.7142    0.3173 C   0  0  0  0  0  0  0  0  0  0  0  0
    3.5465   -0.8457    0.3548 C   0  0  0  0  0  0  0  0  0  0  0  0
    4.3340    0.3072    0.2196 C   0  0  0  0  0  0  0  0  0  0  0  0
    3.7478    1.5647    0.0505 C   0  0  0  0  0  0  0  0  0  0  0  0
    2.3577    1.7150    0.0106 C   0  0  0  0  0  0  0  0  0  0  0  0
    1.6034    0.5523    0.1477 C   0  0  0  0  0  0  0  0  0  0  0  0
    0.2447    0.4877    0.1357 O   0  0  0  0  0  0  0  0  0  0  0  0
   -5.5344    0.7200    0.0201 H   0  0  0  0  0  0  0  0  0  0  0  0
   -4.2031    1.5942    0.8153 H   0  0  0  0  0  0  0  0  0  0  0  0
   -4.1771    1.3716   -0.9298 H   0  0  0  0  0  0  0  0  0  0  0  0
   -3.9454   -1.0960   -0.6281 H   0  0  0  0  0  0  0  0  0  0  0  0
   -3.9719   -0.8694    1.1493 H   0  0  0  0  0  0  0  0  0  0  0  0
    1.0643   -2.6695    0.5504 H   0  0  0  0  0  0  0  0  0  0  0  0
    4.0128   -1.8176    0.4857 H   0  0  0  0  0  0  0  0  0  0  0  0
    5.4183    0.2197    0.2469 H   0  0  0  0  0  0  0  0  0  0  0  0
    4.3821    2.4429   -0.0521 H   0  0  0  0  0  0  0  0  0  0  0  0
    1.8860    2.6813   -0.1196 H   0  0  0  0  0  0  0  0  0  0  0  0
  1  2  1  0
  2  3  1  0
  3  4  1  0
  4  5  2  0
  4  6  1  0
  6  7  2  0
  7  8  1  0
  8  9  2  0
  9 10  1  0
 10 11  2  0
 11 12  1  0
 12 13  2  0
 13 14  1  0
 14  6  1  0
 13  8  1  0
  1 15  1  0
  1 16  1  0
  1 17  1  0
  2 18  1  0
  2 19  1  0
  7 20  1  0
  9 21  1  0
 10 22  1  0
 11 23  1  0
 12 24  1  0
M  END
>  <coordinate_phase>  (11) 
MMFF94_after_optimization_status_retained

>  <molecule_id>  (11) 
benzofuran_ester

>  <seed>  (11) 
20260929

>  <conformer_id>  (11) 
10

>  <optimization_status>  (11) 
0

>  <energy_kcal_mol>  (11) 
25.606610941904254

>  <sasa_A2>  (11) 
407.24675550088114

>  <sasa_orientation_sd_A2>  (11) 
1.8995534046021814

>  <sasa_orientation_range_A2>  (11) 
9.301960217268288

>  <sasa_first_half_vs_all_abs_delta_A2>  (11) 
0.45906025335830236

>  <mass_weighted_Rg_A>  (11) 
3.0077836708070307

>  <unweighted_Rg_A>  (11) 
3.6707509376070213

$$$$
benzofuran_ester_20260929_11
     RDKit          3D

 24 25  0  0  0  0  0  0  0  0999 V2000
    4.2974    0.9404    0.6597 C   0  0  0  0  0  0  0  0  0  0  0  0
    3.8136   -0.2205   -0.1889 C   0  0  0  0  0  0  0  0  0  0  0  0
    2.4002   -0.4008   -0.0223 O   0  0  0  0  0  0  0  0  0  0  0  0
    1.6047    0.3513   -0.8412 C   0  0  0  0  0  0  0  0  0  0  0  0
    2.0245    1.1451   -1.6742 O   0  0  0  0  0  0  0  0  0  0  0  0
    0.2180    0.0613   -0.5623 C   0  0  0  0  0  0  0  0  0  0  0  0
   -0.3959   -0.7952    0.3373 C   0  0  0  0  0  0  0  0  0  0  0  0
   -1.7966   -0.6556    0.1586 C   0  0  0  0  0  0  0  0  0  0  0  0
   -2.9466   -1.2211    0.7367 C   0  0  0  0  0  0  0  0  0  0  0  0
   -4.2043   -0.8096    0.2714 C   0  0  0  0  0  0  0  0  0  0  0  0
   -4.3206    0.1423   -0.7455 C   0  0  0  0  0  0  0  0  0  0  0  0
   -3.1877    0.7156   -1.3322 C   0  0  0  0  0  0  0  0  0  0  0  0
   -1.9541    0.2866   -0.8488 C   0  0  0  0  0  0  0  0  0  0  0  0
   -0.7419    0.7208   -1.2856 O   0  0  0  0  0  0  0  0  0  0  0  0
    3.8310    1.8791    0.3447 H   0  0  0  0  0  0  0  0  0  0  0  0
    4.0274    0.7875    1.7098 H   0  0  0  0  0  0  0  0  0  0  0  0
    5.3832    1.0482    0.5865 H   0  0  0  0  0  0  0  0  0  0  0  0
    4.2948   -1.1454    0.1460 H   0  0  0  0  0  0  0  0  0  0  0  0
    4.0785   -0.0857   -1.2439 H   0  0  0  0  0  0  0  0  0  0  0  0
    0.1123   -1.4426    1.0382 H   0  0  0  0  0  0  0  0  0  0  0  0
   -2.8685   -1.9613    1.5272 H   0  0  0  0  0  0  0  0  0  0  0  0
   -5.1030   -1.2389    0.7097 H   0  0  0  0  0  0  0  0  0  0  0  0
   -5.3084    0.4440   -1.0880 H   0  0  0  0  0  0  0  0  0  0  0  0
   -3.2580    1.4545   -2.1211 H   0  0  0  0  0  0  0  0  0  0  0  0
  1  2  1  0
  2  3  1  0
  3  4  1  0
  4  5  2  0
  4  6  1  0
  6  7  2  0
  7  8  1  0
  8  9  2  0
  9 10  1  0
 10 11  2  0
 11 12  1  0
 12 13  2  0
 13 14  1  0
 14  6  1  0
 13  8  1  0
  1 15  1  0
  1 16  1  0
  1 17  1  0
  2 18  1  0
  2 19  1  0
  7 20  1  0
  9 21  1  0
 10 22  1  0
 11 23  1  0
 12 24  1  0
M  END
>  <coordinate_phase>  (12) 
MMFF94_after_optimization_status_retained

>  <molecule_id>  (12) 
benzofuran_ester

>  <seed>  (12) 
20260929

>  <conformer_id>  (12) 
11

>  <optimization_status>  (12) 
0

>  <energy_kcal_mol>  (12) 
26.88074709685671

>  <sasa_A2>  (12) 
402.09940535312506

>  <sasa_orientation_sd_A2>  (12) 
1.4372098878273745

>  <sasa_orientation_range_A2>  (12) 
7.257569634646984

>  <sasa_first_half_vs_all_abs_delta_A2>  (12) 
0.010814600724017964

>  <mass_weighted_Rg_A>  (12) 
3.016762142301285

>  <unweighted_Rg_A>  (12) 
3.670899407917211

$$$$
benzofuran_ester_20260930_12
     RDKit          3D

 24 25  0  0  0  0  0  0  0  0999 V2000
   -4.6104    0.2560   -0.7837 C   0  0  0  0  0  0  0  0  0  0  0  0
   -3.7031   -0.6782   -0.0069 C   0  0  0  0  0  0  0  0  0  0  0  0
   -2.3513   -0.2432   -0.1921 O   0  0  0  0  0  0  0  0  0  0  0  0
   -1.4241   -1.0065    0.4612 C   0  0  0  0  0  0  0  0  0  0  0  0
   -1.6983   -1.9816    1.1504 O   0  0  0  0  0  0  0  0  0  0  0  0
   -0.1031   -0.4825    0.2075 C   0  0  0  0  0  0  0  0  0  0  0  0
    0.3484    0.5941   -0.5387 C   0  0  0  0  0  0  0  0  0  0  0  0
    1.7619    0.6225   -0.4190 C   0  0  0  0  0  0  0  0  0  0  0  0
    2.7980    1.4345   -0.9125 C   0  0  0  0  0  0  0  0  0  0  0  0
    4.1197    1.1283   -0.5560 C   0  0  0  0  0  0  0  0  0  0  0  0
    4.4092    0.0403    0.2723 C   0  0  0  0  0  0  0  0  0  0  0  0
    3.3915   -0.7784    0.7727 C   0  0  0  0  0  0  0  0  0  0  0  0
    2.0906   -0.4487    0.4009 C   0  0  0  0  0  0  0  0  0  0  0  0
    0.9688   -1.1169    0.7803 O   0  0  0  0  0  0  0  0  0  0  0  0
   -4.3514    0.2485   -1.8476 H   0  0  0  0  0  0  0  0  0  0  0  0
   -5.6583   -0.0364   -0.6731 H   0  0  0  0  0  0  0  0  0  0  0  0
   -4.4920    1.2871   -0.4345 H   0  0  0  0  0  0  0  0  0  0  0  0
   -3.8178   -1.7012   -0.3824 H   0  0  0  0  0  0  0  0  0  0  0  0
   -3.9611   -0.6430    1.0574 H   0  0  0  0  0  0  0  0  0  0  0  0
   -0.2739    1.2758   -1.1016 H   0  0  0  0  0  0  0  0  0  0  0  0
    2.5852    2.2822   -1.5567 H   0  0  0  0  0  0  0  0  0  0  0  0
    4.9317    1.7482   -0.9308 H   0  0  0  0  0  0  0  0  0  0  0  0
    5.4433   -0.1752    0.5336 H   0  0  0  0  0  0  0  0  0  0  0  0
    3.5964   -1.6257    1.4157 H   0  0  0  0  0  0  0  0  0  0  0  0
  1  2  1  0
  2  3  1  0
  3  4  1  0
  4  5  2  0
  4  6  1  0
  6  7  2  0
  7  8  1  0
  8  9  2  0
  9 10  1  0
 10 11  2  0
 11 12  1  0
 12 13  2  0
 13 14  1  0
 14  6  1  0
 13  8  1  0
  1 15  1  0
  1 16  1  0
  1 17  1  0
  2 18  1  0
  2 19  1  0
  7 20  1  0
  9 21  1  0
 10 22  1  0
 11 23  1  0
 12 24  1  0
M  END
>  <coordinate_phase>  (13) 
MMFF94_after_optimization_status_retained

>  <molecule_id>  (13) 
benzofuran_ester

>  <seed>  (13) 
20260930

>  <conformer_id>  (13) 
12

>  <optimization_status>  (13) 
0

>  <energy_kcal_mol>  (13) 
26.384882383640814

>  <sasa_A2>  (13) 
405.95432480301423

>  <sasa_orientation_sd_A2>  (13) 
1.6743693299893987

>  <sasa_orientation_range_A2>  (13) 
7.677666156353496

>  <sasa_first_half_vs_all_abs_delta_A2>  (13) 
0.0707809458669999

>  <mass_weighted_Rg_A>  (13) 
3.0513128315876688

>  <unweighted_Rg_A>  (13) 
3.7145944380371683

$$$$
benzofuran_ester_20260930_13
     RDKit          3D

 24 25  0  0  0  0  0  0  0  0999 V2000
    4.3803    0.7598   -0.5252 C   0  0  0  0  0  0  0  0  0  0  0  0
    3.7031    0.4538    0.7976 C   0  0  0  0  0  0  0  0  0  0  0  0
    2.2780    0.5372    0.6555 O   0  0  0  0  0  0  0  0  0  0  0  0
    1.6557   -0.6030    0.2294 C   0  0  0  0  0  0  0  0  0  0  0  0
    2.2346   -1.6502   -0.0322 O   0  0  0  0  0  0  0  0  0  0  0  0
    0.2338   -0.3687    0.1384 C   0  0  0  0  0  0  0  0  0  0  0  0
   -0.5489    0.7454    0.3944 C   0  0  0  0  0  0  0  0  0  0  0  0
   -1.8940    0.3824    0.1262 C   0  0  0  0  0  0  0  0  0  0  0  0
   -3.1416    1.0280    0.1827 C   0  0  0  0  0  0  0  0  0  0  0  0
   -4.2893    0.3049   -0.1747 C   0  0  0  0  0  0  0  0  0  0  0  0
   -4.2031   -1.0300   -0.5798 C   0  0  0  0  0  0  0  0  0  0  0  0
   -2.9706   -1.6885   -0.6422 C   0  0  0  0  0  0  0  0  0  0  0  0
   -1.8504   -0.9442   -0.2813 C   0  0  0  0  0  0  0  0  0  0  0  0
   -0.5694   -1.4000   -0.2751 O   0  0  0  0  0  0  0  0  0  0  0  0
    4.0652    1.7388   -0.9008 H   0  0  0  0  0  0  0  0  0  0  0  0
    4.1062    0.0233   -1.2871 H   0  0  0  0  0  0  0  0  0  0  0  0
    5.4682    0.7580   -0.4134 H   0  0  0  0  0  0  0  0  0  0  0  0
    3.9940    1.2036    1.5407 H   0  0  0  0  0  0  0  0  0  0  0  0
    4.0099   -0.5223    1.1905 H   0  0  0  0  0  0  0  0  0  0  0  0
   -0.1864    1.7054    0.7347 H   0  0  0  0  0  0  0  0  0  0  0  0
   -3.2208    2.0646    0.4959 H   0  0  0  0  0  0  0  0  0  0  0  0
   -5.2615    0.7920   -0.1356 H   0  0  0  0  0  0  0  0  0  0  0  0
   -5.1090   -1.5680   -0.8518 H   0  0  0  0  0  0  0  0  0  0  0  0
   -2.8841   -2.7223   -0.9537 H   0  0  0  0  0  0  0  0  0  0  0  0
  1  2  1  0
  2  3  1  0
  3  4  1  0
  4  5  2  0
  4  6  1  0
  6  7  2  0
  7  8  1  0
  8  9  2  0
  9 10  1  0
 10 11  2  0
 11 12  1  0
 12 13  2  0
 13 14  1  0
 14  6  1  0
 13  8  1  0
  1 15  1  0
  1 16  1  0
  1 17  1  0
  2 18  1  0
  2 19  1  0
  7 20  1  0
  9 21  1  0
 10 22  1  0
 11 23  1  0
 12 24  1  0
M  END
>  <coordinate_phase>  (14) 
MMFF94_after_optimization_status_retained

>  <molecule_id>  (14) 
benzofuran_ester

>  <seed>  (14) 
20260930

>  <conformer_id>  (14) 
13

>  <optimization_status>  (14) 
0

>  <energy_kcal_mol>  (14) 
26.880747095464447

>  <sasa_A2>  (14) 
402.69938905516864

>  <sasa_orientation_sd_A2>  (14) 
1.9103736826684365

>  <sasa_orientation_range_A2>  (14) 
7.945055647213962

>  <sasa_first_half_vs_all_abs_delta_A2>  (14) 
0.35974588360897997

>  <mass_weighted_Rg_A>  (14) 
3.016762154706087

>  <unweighted_Rg_A>  (14) 
3.6708995918828182

$$$$
benzofuran_ester_20260930_14
     RDKit          3D

 24 25  0  0  0  0  0  0  0  0999 V2000
   -4.3226   -0.4247    0.8695 C   0  0  0  0  0  0  0  0  0  0  0  0
   -3.6740    0.7032    0.0893 C   0  0  0  0  0  0  0  0  0  0  0  0
   -2.2463    0.5958    0.1584 O   0  0  0  0  0  0  0  0  0  0  0  0
   -1.6602   -0.2032   -0.7792 C   0  0  0  0  0  0  0  0  0  0  0  0
   -2.2675   -0.8199   -1.6472 O   0  0  0  0  0  0  0  0  0  0  0  0
   -0.2274   -0.2217   -0.6020 C   0  0  0  0  0  0  0  0  0  0  0  0
    0.7545   -0.8893   -1.3138 C   0  0  0  0  0  0  0  0  0  0  0  0
    1.9988   -0.5591   -0.7184 C   0  0  0  0  0  0  0  0  0  0  0  0
    3.3452   -0.8902   -0.9505 C   0  0  0  0  0  0  0  0  0  0  0  0
    4.3267   -0.3406   -0.1126 C   0  0  0  0  0  0  0  0  0  0  0  0
    3.9819    0.5194    0.9338 C   0  0  0  0  0  0  0  0  0  0  0  0
    2.6477    0.8602    1.1800 C   0  0  0  0  0  0  0  0  0  0  0  0
    1.6969    0.2987    0.3313 C   0  0  0  0  0  0  0  0  0  0  0  0
    0.3544    0.5049    0.4049 O   0  0  0  0  0  0  0  0  0  0  0  0
   -5.4110   -0.3184    0.8725 H   0  0  0  0  0  0  0  0  0  0  0  0
   -3.9652   -0.4313    1.9045 H   0  0  0  0  0  0  0  0  0  0  0  0
   -4.0678   -1.3981    0.4386 H   0  0  0  0  0  0  0  0  0  0  0  0
   -3.9447    1.6641    0.5392 H   0  0  0  0  0  0  0  0  0  0  0  0
   -4.0233    0.7258   -0.9494 H   0  0  0  0  0  0  0  0  0  0  0  0
    0.5813   -1.5369   -2.1624 H   0  0  0  0  0  0  0  0  0  0  0  0
    3.6246   -1.5573   -1.7605 H   0  0  0  0  0  0  0  0  0  0  0  0
    5.3727   -0.5885   -0.2811 H   0  0  0  0  0  0  0  0  0  0  0  0
    4.7633    0.9319    1.5689 H   0  0  0  0  0  0  0  0  0  0  0  0
    2.3620    1.5248    1.9860 H   0  0  0  0  0  0  0  0  0  0  0  0
  1  2  1  0
  2  3  1  0
  3  4  1  0
  4  5  2  0
  4  6  1  0
  6  7  2  0
  7  8  1  0
  8  9  2  0
  9 10  1  0
 10 11  2  0
 11 12  1  0
 12 13  2  0
 13 14  1  0
 14  6  1  0
 13  8  1  0
  1 15  1  0
  1 16  1  0
  1 17  1  0
  2 18  1  0
  2 19  1  0
  7 20  1  0
  9 21  1  0
 10 22  1  0
 11 23  1  0
 12 24  1  0
M  END
>  <coordinate_phase>  (15) 
MMFF94_after_optimization_status_retained

>  <molecule_id>  (15) 
benzofuran_ester

>  <seed>  (15) 
20260930

>  <conformer_id>  (15) 
14

>  <optimization_status>  (15) 
0

>  <energy_kcal_mol>  (15) 
26.064416324693585

>  <sasa_A2>  (15) 
402.28678517358344

>  <sasa_orientation_sd_A2>  (15) 
2.198152970209368

>  <sasa_orientation_range_A2>  (15) 
11.571926402635029

>  <sasa_first_half_vs_all_abs_delta_A2>  (15) 
0.13972286356312225

>  <mass_weighted_Rg_A>  (15) 
2.9874672735003482

>  <unweighted_Rg_A>  (15) 
3.6429757902513034

$$$$
benzofuran_ester_20260930_15
     RDKit          3D

 24 25  0  0  0  0  0  0  0  0999 V2000
    4.4245   -0.1355    0.6852 C   0  0  0  0  0  0  0  0  0  0  0  0
    3.7295    0.7336   -0.3461 C   0  0  0  0  0  0  0  0  0  0  0  0
    2.3147    0.7485   -0.1089 O   0  0  0  0  0  0  0  0  0  0  0  0
    1.6047   -0.2670   -0.6866 C   0  0  0  0  0  0  0  0  0  0  0  0
    2.1001   -1.1576   -1.3661 O   0  0  0  0  0  0  0  0  0  0  0  0
    0.2051   -0.1179   -0.3651 C   0  0  0  0  0  0  0  0  0  0  0  0
   -0.4884    0.8209    0.3815 C   0  0  0  0  0  0  0  0  0  0  0  0
   -1.8583    0.4532    0.3480 C   0  0  0  0  0  0  0  0  0  0  0  0
   -3.0520    0.9665    0.8847 C   0  0  0  0  0  0  0  0  0  0  0  0
   -4.2532    0.2932    0.6172 C   0  0  0  0  0  0  0  0  0  0  0  0
   -4.2718   -0.8645   -0.1657 C   0  0  0  0  0  0  0  0  0  0  0  0
   -3.0942   -1.3896   -0.7079 C   0  0  0  0  0  0  0  0  0  0  0  0
   -1.9186   -0.6989   -0.4245 C   0  0  0  0  0  0  0  0  0  0  0  0
   -0.6768   -1.0459   -0.8559 O   0  0  0  0  0  0  0  0  0  0  0  0
    5.5093   -0.1053    0.5500 H   0  0  0  0  0  0  0  0  0  0  0  0
    4.1850    0.2042    1.6982 H   0  0  0  0  0  0  0  0  0  0  0  0
    4.0921   -1.1757    0.6114 H   0  0  0  0  0  0  0  0  0  0  0  0
    3.9610    0.4096   -1.3672 H   0  0  0  0  0  0  0  0  0  0  0  0
    4.0797    1.7668   -0.2511 H   0  0  0  0  0  0  0  0  0  0  0  0
   -0.0516    1.6698    0.8890 H   0  0  0  0  0  0  0  0  0  0  0  0
   -3.0498    1.8650    1.4943 H   0  0  0  0  0  0  0  0  0  0  0  0
   -5.1848    0.6793    1.0263 H   0  0  0  0  0  0  0  0  0  0  0  0
   -5.2174   -1.3674   -0.3579 H   0  0  0  0  0  0  0  0  0  0  0  0
   -3.0888   -2.2854   -1.3168 H   0  0  0  0  0  0  0  0  0  0  0  0
  1  2  1  0
  2  3  1  0
  3  4  1  0
  4  5  2  0
  4  6  1  0
  6  7  2  0
  7  8  1  0
  8  9  2  0
  9 10  1  0
 10 11  2  0
 11 12  1  0
 12 13  2  0
 13 14  1  0
 14  6  1  0
 13  8  1  0
  1 15  1  0
  1 16  1  0
  1 17  1  0
  2 18  1  0
  2 19  1  0
  7 20  1  0
  9 21  1  0
 10 22  1  0
 11 23  1  0
 12 24  1  0
M  END
>  <coordinate_phase>  (16) 
MMFF94_after_optimization_status_retained

>  <molecule_id>  (16) 
benzofuran_ester

>  <seed>  (16) 
20260930

>  <conformer_id>  (16) 
15

>  <optimization_status>  (16) 
0

>  <energy_kcal_mol>  (16) 
26.880747097871126

>  <sasa_A2>  (16) 
402.3349717153997

>  <sasa_orientation_sd_A2>  (16) 
1.785838780792421

>  <sasa_orientation_range_A2>  (16) 
7.5977711600420434

>  <sasa_first_half_vs_all_abs_delta_A2>  (16) 
0.5237250526734556

>  <mass_weighted_Rg_A>  (16) 
3.0167626701754564

>  <unweighted_Rg_A>  (16) 
3.670900504487213

$$$$
benzofuran_ester_20260930_16
     RDKit          3D

 24 25  0  0  0  0  0  0  0  0999 V2000
   -4.4935    0.6891    0.0087 C   0  0  0  0  0  0  0  0  0  0  0  0
   -3.6640   -0.5086   -0.4114 C   0  0  0  0  0  0  0  0  0  0  0  0
   -2.2841   -0.1903   -0.2064 O   0  0  0  0  0  0  0  0  0  0  0  0
   -1.4190   -1.1889   -0.5466 C   0  0  0  0  0  0  0  0  0  0  0  0
   -1.7593   -2.2788   -0.9928 O   0  0  0  0  0  0  0  0  0  0  0  0
   -0.0551   -0.7807   -0.3073 C   0  0  0  0  0  0  0  0  0  0  0  0
    1.1323   -1.4642   -0.5054 C   0  0  0  0  0  0  0  0  0  0  0  0
    2.1831   -0.5994   -0.1058 C   0  0  0  0  0  0  0  0  0  0  0  0
    3.5858   -0.6766   -0.0542 C   0  0  0  0  0  0  0  0  0  0  0  0
    4.3030    0.4312    0.4210 C   0  0  0  0  0  0  0  0  0  0  0  0
    3.6446    1.5919    0.8366 C   0  0  0  0  0  0  0  0  0  0  0  0
    2.2497    1.6871    0.7925 C   0  0  0  0  0  0  0  0  0  0  0  0
    1.5661    0.5712    0.3161 C   0  0  0  0  0  0  0  0  0  0  0  0
    0.2153    0.4658    0.1960 O   0  0  0  0  0  0  0  0  0  0  0  0
   -4.2173    1.5733   -0.5752 H   0  0  0  0  0  0  0  0  0  0  0  0
   -5.5603    0.4930   -0.1302 H   0  0  0  0  0  0  0  0  0  0  0  0
   -4.3127    0.9332    1.0608 H   0  0  0  0  0  0  0  0  0  0  0  0
   -3.9376   -1.3787    0.1958 H   0  0  0  0  0  0  0  0  0  0  0  0
   -3.8404   -0.7268   -1.4706 H   0  0  0  0  0  0  0  0  0  0  0  0
    1.2183   -2.4699   -0.8938 H   0  0  0  0  0  0  0  0  0  0  0  0
    4.1079   -1.5733   -0.3744 H   0  0  0  0  0  0  0  0  0  0  0  0
    5.3893    0.3849    0.4663 H   0  0  0  0  0  0  0  0  0  0  0  0
    4.2253    2.4369    1.2011 H   0  0  0  0  0  0  0  0  0  0  0  0
    1.7226    2.5783    1.1103 H   0  0  0  0  0  0  0  0  0  0  0  0
  1  2  1  0
  2  3  1  0
  3  4  1  0
  4  5  2  0
  4  6  1  0
  6  7  2  0
  7  8  1  0
  8  9  2  0
  9 10  1  0
 10 11  2  0
 11 12  1  0
 12 13  2  0
 13 14  1  0
 14  6  1  0
 13  8  1  0
  1 15  1  0
  1 16  1  0
  1 17  1  0
  2 18  1  0
  2 19  1  0
  7 20  1  0
  9 21  1  0
 10 22  1  0
 11 23  1  0
 12 24  1  0
M  END
>  <coordinate_phase>  (17) 
MMFF94_after_optimization_status_retained

>  <molecule_id>  (17) 
benzofuran_ester

>  <seed>  (17) 
20260930

>  <conformer_id>  (17) 
16

>  <optimization_status>  (17) 
0

>  <energy_kcal_mol>  (17) 
25.60661094979276

>  <sasa_A2>  (17) 
406.9842367432555

>  <sasa_orientation_sd_A2>  (17) 
2.0384194612744166

>  <sasa_orientation_range_A2>  (17) 
7.657364124698347

>  <sasa_first_half_vs_all_abs_delta_A2>  (17) 
0.21750811921378954

>  <mass_weighted_Rg_A>  (17) 
3.007784359013741

>  <unweighted_Rg_A>  (17) 
3.6707520990983387

$$$$
benzofuran_ester_20260930_17
     RDKit          3D

 24 25  0  0  0  0  0  0  0  0999 V2000
   -4.4000    0.4684   -0.0105 C   0  0  0  0  0  0  0  0  0  0  0  0
   -3.6536   -0.8428    0.1483 C   0  0  0  0  0  0  0  0  0  0  0  0
   -2.2485   -0.5982    0.2924 O   0  0  0  0  0  0  0  0  0  0  0  0
   -1.5373   -0.4942   -0.8670 C   0  0  0  0  0  0  0  0  0  0  0  0
   -2.0181   -0.5896   -1.9905 O   0  0  0  0  0  0  0  0  0  0  0  0
   -0.1422   -0.2530   -0.5833 C   0  0  0  0  0  0  0  0  0  0  0  0
    0.9298   -0.0817   -1.4423 C   0  0  0  0  0  0  0  0  0  0  0  0
    2.0797    0.1251   -0.6382 C   0  0  0  0  0  0  0  0  0  0  0  0
    3.4461    0.3549   -0.8758 C   0  0  0  0  0  0  0  0  0  0  0  0
    4.3019    0.5156    0.2238 C   0  0  0  0  0  0  0  0  0  0  0  0
    3.8145    0.4500    1.5322 C   0  0  0  0  0  0  0  0  0  0  0  0
    2.4583    0.2222    1.7880 C   0  0  0  0  0  0  0  0  0  0  0  0
    1.6344    0.0668    0.6760 C   0  0  0  0  0  0  0  0  0  0  0  0
    0.2939   -0.1612    0.7135 O   0  0  0  0  0  0  0  0  0  0  0  0
   -4.0860    0.9921   -0.9189 H   0  0  0  0  0  0  0  0  0  0  0  0
   -4.1880    1.1359    0.8313 H   0  0  0  0  0  0  0  0  0  0  0  0
   -5.4789    0.2968   -0.0618 H   0  0  0  0  0  0  0  0  0  0  0  0
   -3.8572   -1.5244   -0.6855 H   0  0  0  0  0  0  0  0  0  0  0  0
   -3.9860   -1.3462    1.0621 H   0  0  0  0  0  0  0  0  0  0  0  0
    0.8763   -0.1052   -2.5222 H   0  0  0  0  0  0  0  0  0  0  0  0
    3.8357    0.4077   -1.8880 H   0  0  0  0  0  0  0  0  0  0  0  0
    5.3619    0.6940    0.0542 H   0  0  0  0  0  0  0  0  0  0  0  0
    4.5003    0.5782    2.3672 H   0  0  0  0  0  0  0  0  0  0  0  0
    2.0630    0.1684    2.7949 H   0  0  0  0  0  0  0  0  0  0  0  0
  1  2  1  0
  2  3  1  0
  3  4  1  0
  4  5  2  0
  4  6  1  0
  6  7  2  0
  7  8  1  0
  8  9  2  0
  9 10  1  0
 10 11  2  0
 11 12  1  0
 12 13  2  0
 13 14  1  0
 14  6  1  0
 13  8  1  0
  1 15  1  0
  1 16  1  0
  1 17  1  0
  2 18  1  0
  2 19  1  0
  7 20  1  0
  9 21  1  0
 10 22  1  0
 11 23  1  0
 12 24  1  0
M  END
>  <coordinate_phase>  (18) 
MMFF94_after_optimization_status_retained

>  <molecule_id>  (18) 
benzofuran_ester

>  <seed>  (18) 
20260930

>  <conformer_id>  (18) 
17

>  <optimization_status>  (18) 
0

>  <energy_kcal_mol>  (18) 
26.0644163259772

>  <sasa_A2>  (18) 
401.9960708935482

>  <sasa_orientation_sd_A2>  (18) 
2.1108224710929386

>  <sasa_orientation_range_A2>  (18) 
10.217807576184498

>  <sasa_first_half_vs_all_abs_delta_A2>  (18) 
0.614079774526715

>  <mass_weighted_Rg_A>  (18) 
2.987466671836992

>  <unweighted_Rg_A>  (18) 
3.6429751927931715

$$$$
