benzofuran_ester_20260928_0
     RDKit          3D

 24 25  0  0  0  0  0  0  0  0999 V2000
   -4.4831   -0.0332   -0.1431 C   0  0  0  0  0  0  0  0  0  0  0  0
   -3.7845   -0.1329    1.1707 C   0  0  0  0  0  0  0  0  0  0  0  0
   -2.3802    0.1288    1.0546 O   0  0  0  0  0  0  0  0  0  0  0  0
   -1.5368   -0.6162    0.2673 C   0  0  0  0  0  0  0  0  0  0  0  0
   -2.0207   -1.5847   -0.3914 O   0  0  0  0  0  0  0  0  0  0  0  0
   -0.1149   -0.3173    0.1768 C   0  0  0  0  0  0  0  0  0  0  0  0
    0.7821   -1.0267   -0.5946 C   0  0  0  0  0  0  0  0  0  0  0  0
    2.0040   -0.4108   -0.3867 C   0  0  0  0  0  0  0  0  0  0  0  0
    3.2772   -0.6075   -0.8371 C   0  0  0  0  0  0  0  0  0  0  0  0
    4.3443    0.2023   -0.4393 C   0  0  0  0  0  0  0  0  0  0  0  0
    4.0903    1.2446    0.4485 C   0  0  0  0  0  0  0  0  0  0  0  0
    2.7964    1.4412    0.9036 C   0  0  0  0  0  0  0  0  0  0  0  0
    1.7766    0.6277    0.4919 C   0  0  0  0  0  0  0  0  0  0  0  0
    0.4898    0.6603    0.8148 O   0  0  0  0  0  0  0  0  0  0  0  0
   -5.4819    0.4223    0.0145 H   0  0  0  0  0  0  0  0  0  0  0  0
   -3.9007    0.6333   -0.8216 H   0  0  0  0  0  0  0  0  0  0  0  0
   -4.6750   -1.0290   -0.5947 H   0  0  0  0  0  0  0  0  0  0  0  0
   -3.9456   -1.1459    1.5898 H   0  0  0  0  0  0  0  0  0  0  0  0
   -4.1805    0.6587    1.8403 H   0  0  0  0  0  0  0  0  0  0  0  0
    0.6317   -1.8746   -1.2343 H   0  0  0  0  0  0  0  0  0  0  0  0
    3.4475   -1.4299   -1.5307 H   0  0  0  0  0  0  0  0  0  0  0  0
    5.3354    0.0509   -0.7886 H   0  0  0  0  0  0  0  0  0  0  0  0
    4.9161    1.8857    0.7678 H   0  0  0  0  0  0  0  0  0  0  0  0
    2.6124    2.2531    1.5918 H   0  0  0  0  0  0  0  0  0  0  0  0
  1  2  1  0
  2  3  1  0
  3  4  1  0
  4  5  2  0
  4  6  1  0
  6  7  2  0
  7  8  1  0
  8  9  2  0
  9 10  1  0
 10 11  2  0
 11 12  1  0
 12 13  2  0
 13 14  1  0
 14  6  1  0
 13  8  1  0
  1 15  1  0
  1 16  1  0
  1 17  1  0
  2 18  1  0
  2 19  1  0
  7 20  1  0
  9 21  1  0
 10 22  1  0
 11 23  1  0
 12 24  1  0
M  END
>  <coordinate_phase>  (1) 
ETKDG_before_MMFF

>  <molecule_id>  (1) 
benzofuran_ester

>  <seed>  (1) 
20260928

>  <conformer_id>  (1) 
0

$$$$
benzofuran_ester_20260928_1
     RDKit          3D

 24 25  0  0  0  0  0  0  0  0999 V2000
   -4.3055   -0.2032    0.6232 C   0  0  0  0  0  0  0  0  0  0  0  0
   -3.7862   -0.9458   -0.5864 C   0  0  0  0  0  0  0  0  0  0  0  0
   -2.3661   -1.0869   -0.4572 O   0  0  0  0  0  0  0  0  0  0  0  0
   -1.6458    0.0950   -0.3736 C   0  0  0  0  0  0  0  0  0  0  0  0
   -2.3237    1.1650   -0.4209 O   0  0  0  0  0  0  0  0  0  0  0  0
   -0.1953    0.1067   -0.2394 C   0  0  0  0  0  0  0  0  0  0  0  0
    0.6879   -0.9583   -0.1730 C   0  0  0  0  0  0  0  0  0  0  0  0
    1.9567   -0.4095   -0.0479 C   0  0  0  0  0  0  0  0  0  0  0  0
    3.2134   -0.9552    0.0605 C   0  0  0  0  0  0  0  0  0  0  0  0
    4.2927   -0.0793    0.1727 C   0  0  0  0  0  0  0  0  0  0  0  0
    4.1227    1.2862    0.1765 C   0  0  0  0  0  0  0  0  0  0  0  0
    2.8512    1.8369    0.0669 C   0  0  0  0  0  0  0  0  0  0  0  0
    1.7904    0.9480   -0.0439 C   0  0  0  0  0  0  0  0  0  0  0  0
    0.5225    1.1978   -0.1575 O   0  0  0  0  0  0  0  0  0  0  0  0
   -3.5515   -0.0947    1.4258 H   0  0  0  0  0  0  0  0  0  0  0  0
   -5.2240   -0.7242    0.9663 H   0  0  0  0  0  0  0  0  0  0  0  0
   -4.5342    0.8375    0.2743 H   0  0  0  0  0  0  0  0  0  0  0  0
   -4.1975   -1.9771   -0.6391 H   0  0  0  0  0  0  0  0  0  0  0  0
   -3.9976   -0.4334   -1.5448 H   0  0  0  0  0  0  0  0  0  0  0  0
    0.4153   -2.0067   -0.2132 H   0  0  0  0  0  0  0  0  0  0  0  0
    3.3365   -2.0299    0.0565 H   0  0  0  0  0  0  0  0  0  0  0  0
    5.2912   -0.4666    0.2595 H   0  0  0  0  0  0  0  0  0  0  0  0
    4.9544    1.9841    0.2634 H   0  0  0  0  0  0  0  0  0  0  0  0
    2.6925    2.9141    0.0677 H   0  0  0  0  0  0  0  0  0  0  0  0
  1  2  1  0
  2  3  1  0
  3  4  1  0
  4  5  2  0
  4  6  1  0
  6  7  2  0
  7  8  1  0
  8  9  2  0
  9 10  1  0
 10 11  2  0
 11 12  1  0
 12 13  2  0
 13 14  1  0
 14  6  1  0
 13  8  1  0
  1 15  1  0
  1 16  1  0
  1 17  1  0
  2 18  1  0
  2 19  1  0
  7 20  1  0
  9 21  1  0
 10 22  1  0
 11 23  1  0
 12 24  1  0
M  END
>  <coordinate_phase>  (2) 
ETKDG_before_MMFF

>  <molecule_id>  (2) 
benzofuran_ester

>  <seed>  (2) 
20260928

>  <conformer_id>  (2) 
1

$$$$
benzofuran_ester_20260928_2
     RDKit          3D

 24 25  0  0  0  0  0  0  0  0999 V2000
    4.4421   -0.2627    0.2788 C   0  0  0  0  0  0  0  0  0  0  0  0
    3.8233    0.5972   -0.8113 C   0  0  0  0  0  0  0  0  0  0  0  0
    2.4564    0.3323   -0.9855 O   0  0  0  0  0  0  0  0  0  0  0  0
    1.5952    0.5247    0.0859 C   0  0  0  0  0  0  0  0  0  0  0  0
    1.9769    0.9252    1.2081 O   0  0  0  0  0  0  0  0  0  0  0  0
    0.1480    0.2592   -0.0492 C   0  0  0  0  0  0  0  0  0  0  0  0
   -0.7633    0.4240    0.9573 C   0  0  0  0  0  0  0  0  0  0  0  0
   -2.0150    0.0790    0.4611 C   0  0  0  0  0  0  0  0  0  0  0  0
   -3.2800    0.0525    1.0191 C   0  0  0  0  0  0  0  0  0  0  0  0
   -4.3459   -0.3489    0.2426 C   0  0  0  0  0  0  0  0  0  0  0  0
   -4.1482   -0.7206   -1.0803 C   0  0  0  0  0  0  0  0  0  0  0  0
   -2.8723   -0.6835   -1.6087 C   0  0  0  0  0  0  0  0  0  0  0  0
   -1.7810   -0.2849   -0.8546 C   0  0  0  0  0  0  0  0  0  0  0  0
   -0.4998   -0.1641   -1.1106 O   0  0  0  0  0  0  0  0  0  0  0  0
    4.1126   -0.0214    1.2874 H   0  0  0  0  0  0  0  0  0  0  0  0
    4.3034   -1.3322    0.0303 H   0  0  0  0  0  0  0  0  0  0  0  0
    5.5447   -0.0243    0.2620 H   0  0  0  0  0  0  0  0  0  0  0  0
    4.0239    1.6627   -0.6091 H   0  0  0  0  0  0  0  0  0  0  0  0
    4.3384    0.2824   -1.7535 H   0  0  0  0  0  0  0  0  0  0  0  0
   -0.5987    0.7619    1.9843 H   0  0  0  0  0  0  0  0  0  0  0  0
   -3.4424    0.3405    2.0486 H   0  0  0  0  0  0  0  0  0  0  0  0
   -5.3494   -0.3886    0.6239 H   0  0  0  0  0  0  0  0  0  0  0  0
   -4.9855   -1.0399   -1.7030 H   0  0  0  0  0  0  0  0  0  0  0  0
   -2.6830   -0.9706   -2.6493 H   0  0  0  0  0  0  0  0  0  0  0  0
  1  2  1  0
  2  3  1  0
  3  4  1  0
  4  5  2  0
  4  6  1  0
  6  7  2  0
  7  8  1  0
  8  9  2  0
  9 10  1  0
 10 11  2  0
 11 12  1  0
 12 13  2  0
 13 14  1  0
 14  6  1  0
 13  8  1  0
  1 15  1  0
  1 16  1  0
  1 17  1  0
  2 18  1  0
  2 19  1  0
  7 20  1  0
  9 21  1  0
 10 22  1  0
 11 23  1  0
 12 24  1  0
M  END
>  <coordinate_phase>  (3) 
ETKDG_before_MMFF

>  <molecule_id>  (3) 
benzofuran_ester

>  <seed>  (3) 
20260928

>  <conformer_id>  (3) 
2

$$$$
benzofuran_ester_20260928_3
     RDKit          3D

 24 25  0  0  0  0  0  0  0  0999 V2000
    4.7038    0.6147   -0.3506 C   0  0  0  0  0  0  0  0  0  0  0  0
    3.8497   -0.5724    0.0795 C   0  0  0  0  0  0  0  0  0  0  0  0
    2.4906   -0.1571   -0.0186 O   0  0  0  0  0  0  0  0  0  0  0  0
    1.4314   -0.9921    0.2985 C   0  0  0  0  0  0  0  0  0  0  0  0
    1.6569   -2.1618    0.6886 O   0  0  0  0  0  0  0  0  0  0  0  0
    0.0444   -0.5401    0.1888 C   0  0  0  0  0  0  0  0  0  0  0  0
   -1.0458   -1.3325    0.4924 C   0  0  0  0  0  0  0  0  0  0  0  0
   -2.1718   -0.5527    0.2631 C   0  0  0  0  0  0  0  0  0  0  0  0
   -3.5318   -0.7413    0.3702 C   0  0  0  0  0  0  0  0  0  0  0  0
   -4.4153    0.2737    0.0534 C   0  0  0  0  0  0  0  0  0  0  0  0
   -3.9187    1.4895   -0.3752 C   0  0  0  0  0  0  0  0  0  0  0  0
   -2.5585    1.7215   -0.4970 C   0  0  0  0  0  0  0  0  0  0  0  0
   -1.6966    0.6821   -0.1713 C   0  0  0  0  0  0  0  0  0  0  0  0
   -0.3818    0.6403   -0.1986 O   0  0  0  0  0  0  0  0  0  0  0  0
    5.7521    0.5345   -0.0378 H   0  0  0  0  0  0  0  0  0  0  0  0
    4.2311    1.5734   -0.0690 H   0  0  0  0  0  0  0  0  0  0  0  0
    4.7047    0.6166   -1.4798 H   0  0  0  0  0  0  0  0  0  0  0  0
    4.0594   -1.4640   -0.5204 H   0  0  0  0  0  0  0  0  0  0  0  0
    4.0393   -0.7665    1.1553 H   0  0  0  0  0  0  0  0  0  0  0  0
   -1.0930   -2.3487    0.8391 H   0  0  0  0  0  0  0  0  0  0  0  0
   -3.8984   -1.6880    0.7033 H   0  0  0  0  0  0  0  0  0  0  0  0
   -5.4972    0.1603    0.1261 H   0  0  0  0  0  0  0  0  0  0  0  0
   -4.5629    2.3256   -0.6389 H   0  0  0  0  0  0  0  0  0  0  0  0
   -2.1915    2.6850   -0.8359 H   0  0  0  0  0  0  0  0  0  0  0  0
  1  2  1  0
  2  3  1  0
  3  4  1  0
  4  5  2  0
  4  6  1  0
  6  7  2  0
  7  8  1  0
  8  9  2  0
  9 10  1  0
 10 11  2  0
 11 12  1  0
 12 13  2  0
 13 14  1  0
 14  6  1  0
 13  8  1  0
  1 15  1  0
  1 16  1  0
  1 17  1  0
  2 18  1  0
  2 19  1  0
  7 20  1  0
  9 21  1  0
 10 22  1  0
 11 23  1  0
 12 24  1  0
M  END
>  <coordinate_phase>  (4) 
ETKDG_before_MMFF

>  <molecule_id>  (4) 
benzofuran_ester

>  <seed>  (4) 
20260928

>  <conformer_id>  (4) 
3

$$$$
benzofuran_ester_20260928_4
     RDKit          3D

 24 25  0  0  0  0  0  0  0  0999 V2000
    4.5105   -0.3655    0.3257 C   0  0  0  0  0  0  0  0  0  0  0  0
    3.7567    0.9296    0.1205 C   0  0  0  0  0  0  0  0  0  0  0  0
    2.3793    0.7422   -0.0548 O   0  0  0  0  0  0  0  0  0  0  0  0
    1.5268    0.1514    0.8667 C   0  0  0  0  0  0  0  0  0  0  0  0
    1.9973   -0.2558    1.9486 O   0  0  0  0  0  0  0  0  0  0  0  0
    0.0977    0.0329    0.5203 C   0  0  0  0  0  0  0  0  0  0  0  0
   -0.5100    0.4537   -0.6492 C   0  0  0  0  0  0  0  0  0  0  0  0
   -1.8661    0.1516   -0.5664 C   0  0  0  0  0  0  0  0  0  0  0  0
   -2.9432    0.3324   -1.4134 C   0  0  0  0  0  0  0  0  0  0  0  0
   -4.1875   -0.1083   -0.9832 C   0  0  0  0  0  0  0  0  0  0  0  0
   -4.3688   -0.7091    0.2435 C   0  0  0  0  0  0  0  0  0  0  0  0
   -3.2776   -0.8842    1.0841 C   0  0  0  0  0  0  0  0  0  0  0  0
   -2.0101   -0.4541    0.6865 C   0  0  0  0  0  0  0  0  0  0  0  0
   -0.8172   -0.4912    1.2708 O   0  0  0  0  0  0  0  0  0  0  0  0
    3.8617   -1.2589    0.2824 H   0  0  0  0  0  0  0  0  0  0  0  0
    5.0092   -0.3458    1.3352 H   0  0  0  0  0  0  0  0  0  0  0  0
    5.3415   -0.3880   -0.4253 H   0  0  0  0  0  0  0  0  0  0  0  0
    3.9869    1.6624    0.9419 H   0  0  0  0  0  0  0  0  0  0  0  0
    4.1087    1.4605   -0.8118 H   0  0  0  0  0  0  0  0  0  0  0  0
   -0.0066    0.9263   -1.4616 H   0  0  0  0  0  0  0  0  0  0  0  0
   -2.7951    0.8059   -2.3780 H   0  0  0  0  0  0  0  0  0  0  0  0
   -5.0382    0.0254   -1.6324 H   0  0  0  0  0  0  0  0  0  0  0  0
   -5.3316   -1.0597    0.5973 H   0  0  0  0  0  0  0  0  0  0  0  0
   -3.4244   -1.3538    2.0408 H   0  0  0  0  0  0  0  0  0  0  0  0
  1  2  1  0
  2  3  1  0
  3  4  1  0
  4  5  2  0
  4  6  1  0
  6  7  2  0
  7  8  1  0
  8  9  2  0
  9 10  1  0
 10 11  2  0
 11 12  1  0
 12 13  2  0
 13 14  1  0
 14  6  1  0
 13  8  1  0
  1 15  1  0
  1 16  1  0
  1 17  1  0
  2 18  1  0
  2 19  1  0
  7 20  1  0
  9 21  1  0
 10 22  1  0
 11 23  1  0
 12 24  1  0
M  END
>  <coordinate_phase>  (5) 
ETKDG_before_MMFF

>  <molecule_id>  (5) 
benzofuran_ester

>  <seed>  (5) 
20260928

>  <conformer_id>  (5) 
4

$$$$
benzofuran_ester_20260928_5
     RDKit          3D

 24 25  0  0  0  0  0  0  0  0999 V2000
    4.6923    0.7291   -0.5860 C   0  0  0  0  0  0  0  0  0  0  0  0
    3.8448   -0.2621    0.1828 C   0  0  0  0  0  0  0  0  0  0  0  0
    2.4676    0.0336   -0.0809 O   0  0  0  0  0  0  0  0  0  0  0  0
    1.4514   -0.7273    0.5016 C   0  0  0  0  0  0  0  0  0  0  0  0
    1.8375   -1.6683    1.2565 O   0  0  0  0  0  0  0  0  0  0  0  0
    0.0418   -0.4466    0.2491 C   0  0  0  0  0  0  0  0  0  0  0  0
   -0.5302    0.5311   -0.5389 C   0  0  0  0  0  0  0  0  0  0  0  0
   -1.8999    0.3925   -0.4577 C   0  0  0  0  0  0  0  0  0  0  0  0
   -2.9588    1.0719   -1.0192 C   0  0  0  0  0  0  0  0  0  0  0  0
   -4.2428    0.6230   -0.6901 C   0  0  0  0  0  0  0  0  0  0  0  0
   -4.4328   -0.4458    0.1542 C   0  0  0  0  0  0  0  0  0  0  0  0
   -3.3700   -1.1237    0.7146 C   0  0  0  0  0  0  0  0  0  0  0  0
   -2.0960   -0.6860    0.3940 C   0  0  0  0  0  0  0  0  0  0  0  0
   -0.9309   -1.1407    0.7795 O   0  0  0  0  0  0  0  0  0  0  0  0
    4.1106    1.3153   -1.3281 H   0  0  0  0  0  0  0  0  0  0  0  0
    5.5851    0.2252   -1.0449 H   0  0  0  0  0  0  0  0  0  0  0  0
    5.0901    1.4753    0.1418 H   0  0  0  0  0  0  0  0  0  0  0  0
    4.1040   -1.2933   -0.1118 H   0  0  0  0  0  0  0  0  0  0  0  0
    4.0403   -0.1903    1.2747 H   0  0  0  0  0  0  0  0  0  0  0  0
    0.0177    1.2684   -1.1125 H   0  0  0  0  0  0  0  0  0  0  0  0
   -2.7893    1.9046   -1.6766 H   0  0  0  0  0  0  0  0  0  0  0  0
   -5.0990    1.1367   -1.1158 H   0  0  0  0  0  0  0  0  0  0  0  0
   -5.4499   -0.7547    0.3779 H   0  0  0  0  0  0  0  0  0  0  0  0
   -3.4838   -1.9679    1.3821 H   0  0  0  0  0  0  0  0  0  0  0  0
  1  2  1  0
  2  3  1  0
  3  4  1  0
  4  5  2  0
  4  6  1  0
  6  7  2  0
  7  8  1  0
  8  9  2  0
  9 10  1  0
 10 11  2  0
 11 12  1  0
 12 13  2  0
 13 14  1  0
 14  6  1  0
 13  8  1  0
  1 15  1  0
  1 16  1  0
  1 17  1  0
  2 18  1  0
  2 19  1  0
  7 20  1  0
  9 21  1  0
 10 22  1  0
 11 23  1  0
 12 24  1  0
M  END
>  <coordinate_phase>  (6) 
ETKDG_before_MMFF

>  <molecule_id>  (6) 
benzofuran_ester

>  <seed>  (6) 
20260928

>  <conformer_id>  (6) 
5

$$$$
benzofuran_ester_20260929_6
     RDKit          3D

 24 25  0  0  0  0  0  0  0  0999 V2000
    4.3691    0.0263   -0.6190 C   0  0  0  0  0  0  0  0  0  0  0  0
    3.7265   -1.2532   -0.1234 C   0  0  0  0  0  0  0  0  0  0  0  0
    2.3216   -1.0723   -0.1302 O   0  0  0  0  0  0  0  0  0  0  0  0
    1.6856   -0.0851    0.6136 C   0  0  0  0  0  0  0  0  0  0  0  0
    2.3183    0.7190    1.3472 O   0  0  0  0  0  0  0  0  0  0  0  0
    0.2286    0.0232    0.5411 C   0  0  0  0  0  0  0  0  0  0  0  0
   -0.5622    0.9379    1.2079 C   0  0  0  0  0  0  0  0  0  0  0  0
   -1.8850    0.7034    0.8675 C   0  0  0  0  0  0  0  0  0  0  0  0
   -3.0949    1.2791    1.2081 C   0  0  0  0  0  0  0  0  0  0  0  0
   -4.3006    0.8071    0.6848 C   0  0  0  0  0  0  0  0  0  0  0  0
   -4.2319   -0.2623   -0.1899 C   0  0  0  0  0  0  0  0  0  0  0  0
   -3.0301   -0.8469   -0.5388 C   0  0  0  0  0  0  0  0  0  0  0  0
   -1.8313   -0.3696   -0.0118 C   0  0  0  0  0  0  0  0  0  0  0  0
   -0.5846   -0.7236   -0.1654 O   0  0  0  0  0  0  0  0  0  0  0  0
    4.3324    0.8211    0.1451 H   0  0  0  0  0  0  0  0  0  0  0  0
    5.4025   -0.2504   -0.9258 H   0  0  0  0  0  0  0  0  0  0  0  0
    3.7828    0.3568   -1.5042 H   0  0  0  0  0  0  0  0  0  0  0  0
    3.9376   -2.0316   -0.8874 H   0  0  0  0  0  0  0  0  0  0  0  0
    4.1471   -1.4827    0.8628 H   0  0  0  0  0  0  0  0  0  0  0  0
   -0.2513    1.7152    1.8838 H   0  0  0  0  0  0  0  0  0  0  0  0
   -3.1266    2.1147    1.8941 H   0  0  0  0  0  0  0  0  0  0  0  0
   -5.2522    1.2533    0.9473 H   0  0  0  0  0  0  0  0  0  0  0  0
   -5.1309   -0.6847   -0.6383 H   0  0  0  0  0  0  0  0  0  0  0  0
   -2.9707   -1.6950   -1.2319 H   0  0  0  0  0  0  0  0  0  0  0  0
  1  2  1  0
  2  3  1  0
  3  4  1  0
  4  5  2  0
  4  6  1  0
  6  7  2  0
  7  8  1  0
  8  9  2  0
  9 10  1  0
 10 11  2  0
 11 12  1  0
 12 13  2  0
 13 14  1  0
 14  6  1  0
 13  8  1  0
  1 15  1  0
  1 16  1  0
  1 17  1  0
  2 18  1  0
  2 19  1  0
  7 20  1  0
  9 21  1  0
 10 22  1  0
 11 23  1  0
 12 24  1  0
M  END
>  <coordinate_phase>  (7) 
ETKDG_before_MMFF

>  <molecule_id>  (7) 
benzofuran_ester

>  <seed>  (7) 
20260929

>  <conformer_id>  (7) 
6

$$$$
benzofuran_ester_20260929_7
     RDKit          3D

 24 25  0  0  0  0  0  0  0  0999 V2000
   -4.3742    0.0796    0.3113 C   0  0  0  0  0  0  0  0  0  0  0  0
   -3.6703    1.2093   -0.3954 C   0  0  0  0  0  0  0  0  0  0  0  0
   -2.3067    0.8552   -0.5193 O   0  0  0  0  0  0  0  0  0  0  0  0
   -1.5690    0.6149    0.6318 C   0  0  0  0  0  0  0  0  0  0  0  0
   -2.0629    0.6985    1.7950 O   0  0  0  0  0  0  0  0  0  0  0  0
   -0.1492    0.2471    0.4815 C   0  0  0  0  0  0  0  0  0  0  0  0
    0.5558    0.1095   -0.7193 C   0  0  0  0  0  0  0  0  0  0  0  0
    1.8578   -0.2465   -0.3904 C   0  0  0  0  0  0  0  0  0  0  0  0
    2.9943   -0.5170   -1.1087 C   0  0  0  0  0  0  0  0  0  0  0  0
    4.1518   -0.8494   -0.4207 C   0  0  0  0  0  0  0  0  0  0  0  0
    4.1917   -0.9153    0.9655 C   0  0  0  0  0  0  0  0  0  0  0  0
    3.0338   -0.6390    1.6783 C   0  0  0  0  0  0  0  0  0  0  0  0
    1.8842   -0.3091    0.9996 C   0  0  0  0  0  0  0  0  0  0  0  0
    0.6888   -0.0130    1.4658 O   0  0  0  0  0  0  0  0  0  0  0  0
   -4.3203    0.2323    1.4074 H   0  0  0  0  0  0  0  0  0  0  0  0
   -5.4490    0.0117    0.0031 H   0  0  0  0  0  0  0  0  0  0  0  0
   -3.9006   -0.9212    0.1032 H   0  0  0  0  0  0  0  0  0  0  0  0
   -4.1334    1.3692   -1.3856 H   0  0  0  0  0  0  0  0  0  0  0  0
   -3.7453    2.1185    0.2621 H   0  0  0  0  0  0  0  0  0  0  0  0
    0.1616    0.2532   -1.7164 H   0  0  0  0  0  0  0  0  0  0  0  0
    2.9687   -0.4667   -2.1998 H   0  0  0  0  0  0  0  0  0  0  0  0
    5.0431   -1.0609   -0.9987 H   0  0  0  0  0  0  0  0  0  0  0  0
    5.1223   -1.1809    1.4768 H   0  0  0  0  0  0  0  0  0  0  0  0
    3.0270   -0.6799    2.7474 H   0  0  0  0  0  0  0  0  0  0  0  0
  1  2  1  0
  2  3  1  0
  3  4  1  0
  4  5  2  0
  4  6  1  0
  6  7  2  0
  7  8  1  0
  8  9  2  0
  9 10  1  0
 10 11  2  0
 11 12  1  0
 12 13  2  0
 13 14  1  0
 14  6  1  0
 13  8  1  0
  1 15  1  0
  1 16  1  0
  1 17  1  0
  2 18  1  0
  2 19  1  0
  7 20  1  0
  9 21  1  0
 10 22  1  0
 11 23  1  0
 12 24  1  0
M  END
>  <coordinate_phase>  (8) 
ETKDG_before_MMFF

>  <molecule_id>  (8) 
benzofuran_ester

>  <seed>  (8) 
20260929

>  <conformer_id>  (8) 
7

$$$$
benzofuran_ester_20260929_8
     RDKit          3D

 24 25  0  0  0  0  0  0  0  0999 V2000
    4.5571   -0.1525    0.2903 C   0  0  0  0  0  0  0  0  0  0  0  0
    3.7508   -0.4781   -0.9270 C   0  0  0  0  0  0  0  0  0  0  0  0
    2.3767   -0.6066   -0.7245 O   0  0  0  0  0  0  0  0  0  0  0  0
    1.5650    0.3878   -0.2414 C   0  0  0  0  0  0  0  0  0  0  0  0
    2.0657    1.4919    0.0441 O   0  0  0  0  0  0  0  0  0  0  0  0
    0.1279    0.1899   -0.0513 C   0  0  0  0  0  0  0  0  0  0  0  0
   -0.7121    1.1725    0.4330 C   0  0  0  0  0  0  0  0  0  0  0  0
   -1.9720    0.6122    0.4682 C   0  0  0  0  0  0  0  0  0  0  0  0
   -3.1936    1.1339    0.8642 C   0  0  0  0  0  0  0  0  0  0  0  0
   -4.3483    0.3678    0.8107 C   0  0  0  0  0  0  0  0  0  0  0  0
   -4.2380   -0.9289    0.3503 C   0  0  0  0  0  0  0  0  0  0  0  0
   -3.0156   -1.4460   -0.0443 C   0  0  0  0  0  0  0  0  0  0  0  0
   -1.8567   -0.6822    0.0078 C   0  0  0  0  0  0  0  0  0  0  0  0
   -0.5972   -0.8729   -0.2826 O   0  0  0  0  0  0  0  0  0  0  0  0
    4.1678    0.7312    0.8602 H   0  0  0  0  0  0  0  0  0  0  0  0
    5.5603    0.2121   -0.0805 H   0  0  0  0  0  0  0  0  0  0  0  0
    4.7902   -0.9928    0.9495 H   0  0  0  0  0  0  0  0  0  0  0  0
    4.0385    0.2043   -1.7441 H   0  0  0  0  0  0  0  0  0  0  0  0
    4.1081   -1.4988   -1.2533 H   0  0  0  0  0  0  0  0  0  0  0  0
   -0.4636    2.1907    0.7345 H   0  0  0  0  0  0  0  0  0  0  0  0
   -3.3076    2.1511    1.2303 H   0  0  0  0  0  0  0  0  0  0  0  0
   -5.2939    0.8065    1.1291 H   0  0  0  0  0  0  0  0  0  0  0  0
   -5.1455   -1.5234    0.3108 H   0  0  0  0  0  0  0  0  0  0  0  0
   -2.9642   -2.4697   -0.4013 H   0  0  0  0  0  0  0  0  0  0  0  0
  1  2  1  0
  2  3  1  0
  3  4  1  0
  4  5  2  0
  4  6  1  0
  6  7  2  0
  7  8  1  0
  8  9  2  0
  9 10  1  0
 10 11  2  0
 11 12  1  0
 12 13  2  0
 13 14  1  0
 14  6  1  0
 13  8  1  0
  1 15  1  0
  1 16  1  0
  1 17  1  0
  2 18  1  0
  2 19  1  0
  7 20  1  0
  9 21  1  0
 10 22  1  0
 11 23  1  0
 12 24  1  0
M  END
>  <coordinate_phase>  (9) 
ETKDG_before_MMFF

>  <molecule_id>  (9) 
benzofuran_ester

>  <seed>  (9) 
20260929

>  <conformer_id>  (9) 
8

$$$$
benzofuran_ester_20260929_9
     RDKit          3D

 24 25  0  0  0  0  0  0  0  0999 V2000
    4.4717   -0.1367   -0.0085 C   0  0  0  0  0  0  0  0  0  0  0  0
    3.6975    1.1263    0.2771 C   0  0  0  0  0  0  0  0  0  0  0  0
    2.3286    0.9034    0.0698 O   0  0  0  0  0  0  0  0  0  0  0  0
    1.5515   -0.0200    0.7302 C   0  0  0  0  0  0  0  0  0  0  0  0
    2.0920   -0.7404    1.6016 O   0  0  0  0  0  0  0  0  0  0  0  0
    0.1178   -0.1302    0.3925 C   0  0  0  0  0  0  0  0  0  0  0  0
   -0.5564    0.6351   -0.5643 C   0  0  0  0  0  0  0  0  0  0  0  0
   -1.8713    0.2145   -0.5619 C   0  0  0  0  0  0  0  0  0  0  0  0
   -2.9669    0.6199   -1.2982 C   0  0  0  0  0  0  0  0  0  0  0  0
   -4.1978    0.0180   -1.0925 C   0  0  0  0  0  0  0  0  0  0  0  0
   -4.2899   -0.9858   -0.1408 C   0  0  0  0  0  0  0  0  0  0  0  0
   -3.1805   -1.3734    0.5822 C   0  0  0  0  0  0  0  0  0  0  0  0
   -1.9459   -0.7897    0.3957 C   0  0  0  0  0  0  0  0  0  0  0  0
   -0.7457   -0.9561    0.9309 O   0  0  0  0  0  0  0  0  0  0  0  0
    4.2852   -0.9477    0.6973 H   0  0  0  0  0  0  0  0  0  0  0  0
    5.5604    0.1029   -0.0801 H   0  0  0  0  0  0  0  0  0  0  0  0
    4.1868   -0.4676   -1.0342 H   0  0  0  0  0  0  0  0  0  0  0  0
    3.9257    1.5039    1.3076 H   0  0  0  0  0  0  0  0  0  0  0  0
    4.0266    1.8780   -0.4842 H   0  0  0  0  0  0  0  0  0  0  0  0
   -0.0712    1.3961   -1.1569 H   0  0  0  0  0  0  0  0  0  0  0  0
   -2.8469    1.4135   -2.0360 H   0  0  0  0  0  0  0  0  0  0  0  0
   -5.0516    0.3490   -1.6810 H   0  0  0  0  0  0  0  0  0  0  0  0
   -5.2589   -1.4519    0.0134 H   0  0  0  0  0  0  0  0  0  0  0  0
   -3.2611   -2.1613    1.3268 H   0  0  0  0  0  0  0  0  0  0  0  0
  1  2  1  0
  2  3  1  0
  3  4  1  0
  4  5  2  0
  4  6  1  0
  6  7  2  0
  7  8  1  0
  8  9  2  0
  9 10  1  0
 10 11  2  0
 11 12  1  0
 12 13  2  0
 13 14  1  0
 14  6  1  0
 13  8  1  0
  1 15  1  0
  1 16  1  0
  1 17  1  0
  2 18  1  0
  2 19  1  0
  7 20  1  0
  9 21  1  0
 10 22  1  0
 11 23  1  0
 12 24  1  0
M  END
>  <coordinate_phase>  (10) 
ETKDG_before_MMFF

>  <molecule_id>  (10) 
benzofuran_ester

>  <seed>  (10) 
20260929

>  <conformer_id>  (10) 
9

$$$$
benzofuran_ester_20260929_10
     RDKit          3D

 24 25  0  0  0  0  0  0  0  0999 V2000
   -4.7356    0.7330   -0.0411 C   0  0  0  0  0  0  0  0  0  0  0  0
   -3.8560   -0.5081    0.0538 C   0  0  0  0  0  0  0  0  0  0  0  0
   -2.5165   -0.0557    0.0929 O   0  0  0  0  0  0  0  0  0  0  0  0
   -1.4420   -0.9257    0.1797 C   0  0  0  0  0  0  0  0  0  0  0  0
   -1.6769   -2.1688    0.2252 O   0  0  0  0  0  0  0  0  0  0  0  0
   -0.0544   -0.4798    0.2212 C   0  0  0  0  0  0  0  0  0  0  0  0
    1.0058   -1.3587    0.3077 C   0  0  0  0  0  0  0  0  0  0  0  0
    2.1483   -0.5666    0.3228 C   0  0  0  0  0  0  0  0  0  0  0  0
    3.4938   -0.8791    0.3965 C   0  0  0  0  0  0  0  0  0  0  0  0
    4.4372    0.1244    0.3932 C   0  0  0  0  0  0  0  0  0  0  0  0
    4.0002    1.4513    0.3141 C   0  0  0  0  0  0  0  0  0  0  0  0
    2.6609    1.7562    0.2410 C   0  0  0  0  0  0  0  0  0  0  0  0
    1.7107    0.7524    0.2440 C   0  0  0  0  0  0  0  0  0  0  0  0
    0.3802    0.7495    0.1851 O   0  0  0  0  0  0  0  0  0  0  0  0
   -5.5675    0.5705    0.6626 H   0  0  0  0  0  0  0  0  0  0  0  0
   -4.1746    1.6566    0.2420 H   0  0  0  0  0  0  0  0  0  0  0  0
   -5.0950    0.8670   -1.0982 H   0  0  0  0  0  0  0  0  0  0  0  0
   -3.9537   -1.0919   -0.9071 H   0  0  0  0  0  0  0  0  0  0  0  0
   -4.1354   -1.1805    0.8702 H   0  0  0  0  0  0  0  0  0  0  0  0
    1.0479   -2.4211    0.3574 H   0  0  0  0  0  0  0  0  0  0  0  0
    3.8151   -1.9309    0.4581 H   0  0  0  0  0  0  0  0  0  0  0  0
    5.4708   -0.1452    0.4512 H   0  0  0  0  0  0  0  0  0  0  0  0
    4.7435    2.2618    0.3106 H   0  0  0  0  0  0  0  0  0  0  0  0
    2.2932    2.7891    0.1782 H   0  0  0  0  0  0  0  0  0  0  0  0
  1  2  1  0
  2  3  1  0
  3  4  1  0
  4  5  2  0
  4  6  1  0
  6  7  2  0
  7  8  1  0
  8  9  2  0
  9 10  1  0
 10 11  2  0
 11 12  1  0
 12 13  2  0
 13 14  1  0
 14  6  1  0
 13  8  1  0
  1 15  1  0
  1 16  1  0
  1 17  1  0
  2 18  1  0
  2 19  1  0
  7 20  1  0
  9 21  1  0
 10 22  1  0
 11 23  1  0
 12 24  1  0
M  END
>  <coordinate_phase>  (11) 
ETKDG_before_MMFF

>  <molecule_id>  (11) 
benzofuran_ester

>  <seed>  (11) 
20260929

>  <conformer_id>  (11) 
10

$$$$
benzofuran_ester_20260929_11
     RDKit          3D

 24 25  0  0  0  0  0  0  0  0999 V2000
    4.2490    1.1556    0.2816 C   0  0  0  0  0  0  0  0  0  0  0  0
    3.9246   -0.2074   -0.3315 C   0  0  0  0  0  0  0  0  0  0  0  0
    2.5533   -0.5567   -0.0978 O   0  0  0  0  0  0  0  0  0  0  0  0
    1.5733    0.2849   -0.5989 C   0  0  0  0  0  0  0  0  0  0  0  0
    1.9930    1.3075   -1.2309 O   0  0  0  0  0  0  0  0  0  0  0  0
    0.1556    0.0112   -0.4108 C   0  0  0  0  0  0  0  0  0  0  0  0
   -0.4687   -1.0242    0.2321 C   0  0  0  0  0  0  0  0  0  0  0  0
   -1.8483   -0.8301    0.1332 C   0  0  0  0  0  0  0  0  0  0  0  0
   -2.9505   -1.5140    0.5678 C   0  0  0  0  0  0  0  0  0  0  0  0
   -4.1898   -0.9821    0.2601 C   0  0  0  0  0  0  0  0  0  0  0  0
   -4.3229    0.1936   -0.4577 C   0  0  0  0  0  0  0  0  0  0  0  0
   -3.2172    0.8894   -0.8996 C   0  0  0  0  0  0  0  0  0  0  0  0
   -1.9797    0.3397   -0.5810 C   0  0  0  0  0  0  0  0  0  0  0  0
   -0.7969    0.7960   -0.8775 O   0  0  0  0  0  0  0  0  0  0  0  0
    4.5546    1.8948   -0.5115 H   0  0  0  0  0  0  0  0  0  0  0  0
    3.3958    1.5880    0.8332 H   0  0  0  0  0  0  0  0  0  0  0  0
    5.1115    1.1033    0.9786 H   0  0  0  0  0  0  0  0  0  0  0  0
    4.6090   -0.9367    0.1048 H   0  0  0  0  0  0  0  0  0  0  0  0
    4.1200   -0.1253   -1.4253 H   0  0  0  0  0  0  0  0  0  0  0  0
    0.0281   -1.8461    0.7280 H   0  0  0  0  0  0  0  0  0  0  0  0
   -2.8225   -2.4151    1.1174 H   0  0  0  0  0  0  0  0  0  0  0  0
   -5.0691   -1.5328    0.6099 H   0  0  0  0  0  0  0  0  0  0  0  0
   -5.2961    0.5975   -0.6909 H   0  0  0  0  0  0  0  0  0  0  0  0
   -3.3062    1.8091   -1.4613 H   0  0  0  0  0  0  0  0  0  0  0  0
  1  2  1  0
  2  3  1  0
  3  4  1  0
  4  5  2  0
  4  6  1  0
  6  7  2  0
  7  8  1  0
  8  9  2  0
  9 10  1  0
 10 11  2  0
 11 12  1  0
 12 13  2  0
 13 14  1  0
 14  6  1  0
 13  8  1  0
  1 15  1  0
  1 16  1  0
  1 17  1  0
  2 18  1  0
  2 19  1  0
  7 20  1  0
  9 21  1  0
 10 22  1  0
 11 23  1  0
 12 24  1  0
M  END
>  <coordinate_phase>  (12) 
ETKDG_before_MMFF

>  <molecule_id>  (12) 
benzofuran_ester

>  <seed>  (12) 
20260929

>  <conformer_id>  (12) 
11

$$$$
benzofuran_ester_20260930_12
     RDKit          3D

 24 25  0  0  0  0  0  0  0  0999 V2000
   -4.5553    0.3256   -0.8430 C   0  0  0  0  0  0  0  0  0  0  0  0
   -3.7777   -0.7184   -0.0331 C   0  0  0  0  0  0  0  0  0  0  0  0
   -2.4252   -0.3496   -0.1486 O   0  0  0  0  0  0  0  0  0  0  0  0
   -1.3839   -1.0526    0.4510 C   0  0  0  0  0  0  0  0  0  0  0  0
   -1.6807   -2.0703    1.1299 O   0  0  0  0  0  0  0  0  0  0  0  0
   -0.0097   -0.5936    0.2749 C   0  0  0  0  0  0  0  0  0  0  0  0
    0.3891    0.5250   -0.4636 C   0  0  0  0  0  0  0  0  0  0  0  0
    1.7629    0.5474   -0.3351 C   0  0  0  0  0  0  0  0  0  0  0  0
    2.6787    1.4151   -0.8444 C   0  0  0  0  0  0  0  0  0  0  0  0
    4.0230    1.1878   -0.5449 C   0  0  0  0  0  0  0  0  0  0  0  0
    4.4216    0.1207    0.2413 C   0  0  0  0  0  0  0  0  0  0  0  0
    3.4646   -0.7434    0.7438 C   0  0  0  0  0  0  0  0  0  0  0  0
    2.1380   -0.5250    0.4523 C   0  0  0  0  0  0  0  0  0  0  0  0
    1.0495   -1.1746    0.7913 O   0  0  0  0  0  0  0  0  0  0  0  0
   -4.5125    0.0863   -1.9160 H   0  0  0  0  0  0  0  0  0  0  0  0
   -5.6015    0.3644   -0.4855 H   0  0  0  0  0  0  0  0  0  0  0  0
   -4.0609    1.3163   -0.6769 H   0  0  0  0  0  0  0  0  0  0  0  0
   -3.9866   -1.7180   -0.5035 H   0  0  0  0  0  0  0  0  0  0  0  0
   -4.1811   -0.6480    0.9981 H   0  0  0  0  0  0  0  0  0  0  0  0
   -0.2253    1.2191   -1.0122 H   0  0  0  0  0  0  0  0  0  0  0  0
    2.4137    2.2727   -1.4705 H   0  0  0  0  0  0  0  0  0  0  0  0
    4.8075    1.8435   -0.9201 H   0  0  0  0  0  0  0  0  0  0  0  0
    5.4869   -0.0356    0.4620 H   0  0  0  0  0  0  0  0  0  0  0  0
    3.7649   -1.5949    1.3694 H   0  0  0  0  0  0  0  0  0  0  0  0
  1  2  1  0
  2  3  1  0
  3  4  1  0
  4  5  2  0
  4  6  1  0
  6  7  2  0
  7  8  1  0
  8  9  2  0
  9 10  1  0
 10 11  2  0
 11 12  1  0
 12 13  2  0
 13 14  1  0
 14  6  1  0
 13  8  1  0
  1 15  1  0
  1 16  1  0
  1 17  1  0
  2 18  1  0
  2 19  1  0
  7 20  1  0
  9 21  1  0
 10 22  1  0
 11 23  1  0
 12 24  1  0
M  END
>  <coordinate_phase>  (13) 
ETKDG_before_MMFF

>  <molecule_id>  (13) 
benzofuran_ester

>  <seed>  (13) 
20260930

>  <conformer_id>  (13) 
12

$$$$
benzofuran_ester_20260930_13
     RDKit          3D

 24 25  0  0  0  0  0  0  0  0999 V2000
    4.4470    0.5215   -0.4858 C   0  0  0  0  0  0  0  0  0  0  0  0
    3.7602    0.5469    0.8566 C   0  0  0  0  0  0  0  0  0  0  0  0
    2.3452    0.5342    0.7206 O   0  0  0  0  0  0  0  0  0  0  0  0
    1.6272   -0.4550    0.1100 C   0  0  0  0  0  0  0  0  0  0  0  0
    2.2484   -1.4559   -0.3849 O   0  0  0  0  0  0  0  0  0  0  0  0
    0.1802   -0.4066    0.0047 C   0  0  0  0  0  0  0  0  0  0  0  0
   -0.6274    0.6105    0.4915 C   0  0  0  0  0  0  0  0  0  0  0  0
   -1.9434    0.2717    0.1847 C   0  0  0  0  0  0  0  0  0  0  0  0
   -3.1413    0.9086    0.4264 C   0  0  0  0  0  0  0  0  0  0  0  0
   -4.3365    0.3336    0.0005 C   0  0  0  0  0  0  0  0  0  0  0  0
   -4.2780   -0.8696   -0.6571 C   0  0  0  0  0  0  0  0  0  0  0  0
   -3.0652   -1.5062   -0.8973 C   0  0  0  0  0  0  0  0  0  0  0  0
   -1.8610   -0.9391   -0.4750 C   0  0  0  0  0  0  0  0  0  0  0  0
   -0.6002   -1.2984   -0.5579 O   0  0  0  0  0  0  0  0  0  0  0  0
    3.9099    1.0791   -1.2705 H   0  0  0  0  0  0  0  0  0  0  0  0
    4.6578   -0.5389   -0.7953 H   0  0  0  0  0  0  0  0  0  0  0  0
    5.4480    1.0105   -0.3600 H   0  0  0  0  0  0  0  0  0  0  0  0
    3.9941    1.5415    1.3239 H   0  0  0  0  0  0  0  0  0  0  0  0
    4.1432   -0.2727    1.4670 H   0  0  0  0  0  0  0  0  0  0  0  0
   -0.3327    1.5007    1.0089 H   0  0  0  0  0  0  0  0  0  0  0  0
   -3.1083    1.8537    0.9502 H   0  0  0  0  0  0  0  0  0  0  0  0
   -5.2542    0.8419    0.1969 H   0  0  0  0  0  0  0  0  0  0  0  0
   -5.1876   -1.3482   -1.0038 H   0  0  0  0  0  0  0  0  0  0  0  0
   -3.0254   -2.4639   -1.4214 H   0  0  0  0  0  0  0  0  0  0  0  0
  1  2  1  0
  2  3  1  0
  3  4  1  0
  4  5  2  0
  4  6  1  0
  6  7  2  0
  7  8  1  0
  8  9  2  0
  9 10  1  0
 10 11  2  0
 11 12  1  0
 12 13  2  0
 13 14  1  0
 14  6  1  0
 13  8  1  0
  1 15  1  0
  1 16  1  0
  1 17  1  0
  2 18  1  0
  2 19  1  0
  7 20  1  0
  9 21  1  0
 10 22  1  0
 11 23  1  0
 12 24  1  0
M  END
>  <coordinate_phase>  (14) 
ETKDG_before_MMFF

>  <molecule_id>  (14) 
benzofuran_ester

>  <seed>  (14) 
20260930

>  <conformer_id>  (14) 
13

$$$$
benzofuran_ester_20260930_14
     RDKit          3D

 24 25  0  0  0  0  0  0  0  0999 V2000
   -4.4218   -0.6128    0.4762 C   0  0  0  0  0  0  0  0  0  0  0  0
   -3.8214    0.7219    0.1319 C   0  0  0  0  0  0  0  0  0  0  0  0
   -2.4224    0.7529    0.2841 O   0  0  0  0  0  0  0  0  0  0  0  0
   -1.6281   -0.1143   -0.4537 C   0  0  0  0  0  0  0  0  0  0  0  0
   -2.0715   -0.9496   -1.2711 O   0  0  0  0  0  0  0  0  0  0  0  0
   -0.1811   -0.0507   -0.2668 C   0  0  0  0  0  0  0  0  0  0  0  0
    0.7127   -0.8664   -0.9480 C   0  0  0  0  0  0  0  0  0  0  0  0
    1.9856   -0.5028   -0.4969 C   0  0  0  0  0  0  0  0  0  0  0  0
    3.2225   -0.9780   -0.8306 C   0  0  0  0  0  0  0  0  0  0  0  0
    4.3730   -0.4508   -0.2378 C   0  0  0  0  0  0  0  0  0  0  0  0
    4.1837    0.5693    0.6960 C   0  0  0  0  0  0  0  0  0  0  0  0
    2.9343    1.0394    1.0237 C   0  0  0  0  0  0  0  0  0  0  0  0
    1.7954    0.5175    0.4369 C   0  0  0  0  0  0  0  0  0  0  0  0
    0.5058    0.7359    0.5267 O   0  0  0  0  0  0  0  0  0  0  0  0
   -5.5277   -0.4836    0.5132 H   0  0  0  0  0  0  0  0  0  0  0  0
   -4.1216   -0.8832    1.5263 H   0  0  0  0  0  0  0  0  0  0  0  0
   -4.1441   -1.3610   -0.2720 H   0  0  0  0  0  0  0  0  0  0  0  0
   -4.2544    1.4499    0.8733 H   0  0  0  0  0  0  0  0  0  0  0  0
   -4.1581    1.0362   -0.8729 H   0  0  0  0  0  0  0  0  0  0  0  0
    0.5032   -1.6362   -1.6838 H   0  0  0  0  0  0  0  0  0  0  0  0
    3.2788   -1.7749   -1.5682 H   0  0  0  0  0  0  0  0  0  0  0  0
    5.3442   -0.8269   -0.5026 H   0  0  0  0  0  0  0  0  0  0  0  0
    5.0841    0.9891    1.1665 H   0  0  0  0  0  0  0  0  0  0  0  0
    2.8287    1.8285    1.7497 H   0  0  0  0  0  0  0  0  0  0  0  0
  1  2  1  0
  2  3  1  0
  3  4  1  0
  4  5  2  0
  4  6  1  0
  6  7  2  0
  7  8  1  0
  8  9  2  0
  9 10  1  0
 10 11  2  0
 11 12  1  0
 12 13  2  0
 13 14  1  0
 14  6  1  0
 13  8  1  0
  1 15  1  0
  1 16  1  0
  1 17  1  0
  2 18  1  0
  2 19  1  0
  7 20  1  0
  9 21  1  0
 10 22  1  0
 11 23  1  0
 12 24  1  0
M  END
>  <coordinate_phase>  (15) 
ETKDG_before_MMFF

>  <molecule_id>  (15) 
benzofuran_ester

>  <seed>  (15) 
20260930

>  <conformer_id>  (15) 
14

$$$$
benzofuran_ester_20260930_15
     RDKit          3D

 24 25  0  0  0  0  0  0  0  0999 V2000
    4.4924   -0.2917    0.4252 C   0  0  0  0  0  0  0  0  0  0  0  0
    3.7675    0.7531   -0.4078 C   0  0  0  0  0  0  0  0  0  0  0  0
    2.3817    0.7303   -0.2364 O   0  0  0  0  0  0  0  0  0  0  0  0
    1.6051   -0.3855   -0.5240 C   0  0  0  0  0  0  0  0  0  0  0  0
    2.1431   -1.4348   -0.9586 O   0  0  0  0  0  0  0  0  0  0  0  0
    0.1538   -0.3019   -0.3072 C   0  0  0  0  0  0  0  0  0  0  0  0
   -0.5589    0.8031    0.1694 C   0  0  0  0  0  0  0  0  0  0  0  0
   -1.8942    0.4504    0.2194 C   0  0  0  0  0  0  0  0  0  0  0  0
   -3.0138    1.1573    0.6102 C   0  0  0  0  0  0  0  0  0  0  0  0
   -4.2587    0.5518    0.5607 C   0  0  0  0  0  0  0  0  0  0  0  0
   -4.3345   -0.7548    0.1160 C   0  0  0  0  0  0  0  0  0  0  0  0
   -3.1986   -1.4503   -0.2728 C   0  0  0  0  0  0  0  0  0  0  0  0
   -1.9417   -0.8544   -0.2282 C   0  0  0  0  0  0  0  0  0  0  0  0
   -0.7251   -1.2529   -0.5242 O   0  0  0  0  0  0  0  0  0  0  0  0
    5.3297    0.1651    1.0221 H   0  0  0  0  0  0  0  0  0  0  0  0
    3.7597   -0.6399    1.2075 H   0  0  0  0  0  0  0  0  0  0  0  0
    4.8462   -1.0900   -0.2353 H   0  0  0  0  0  0  0  0  0  0  0  0
    4.0764    0.7324   -1.4770 H   0  0  0  0  0  0  0  0  0  0  0  0
    4.1103    1.7484   -0.0219 H   0  0  0  0  0  0  0  0  0  0  0  0
   -0.1087    1.7486    0.4399 H   0  0  0  0  0  0  0  0  0  0  0  0
   -2.8794    2.1763    0.9472 H   0  0  0  0  0  0  0  0  0  0  0  0
   -5.1239    1.1189    0.8698 H   0  0  0  0  0  0  0  0  0  0  0  0
   -5.3274   -1.1949    0.0914 H   0  0  0  0  0  0  0  0  0  0  0  0
   -3.3008   -2.4844   -0.6193 H   0  0  0  0  0  0  0  0  0  0  0  0
  1  2  1  0
  2  3  1  0
  3  4  1  0
  4  5  2  0
  4  6  1  0
  6  7  2  0
  7  8  1  0
  8  9  2  0
  9 10  1  0
 10 11  2  0
 11 12  1  0
 12 13  2  0
 13 14  1  0
 14  6  1  0
 13  8  1  0
  1 15  1  0
  1 16  1  0
  1 17  1  0
  2 18  1  0
  2 19  1  0
  7 20  1  0
  9 21  1  0
 10 22  1  0
 11 23  1  0
 12 24  1  0
M  END
>  <coordinate_phase>  (16) 
ETKDG_before_MMFF

>  <molecule_id>  (16) 
benzofuran_ester

>  <seed>  (16) 
20260930

>  <conformer_id>  (16) 
15

$$$$
benzofuran_ester_20260930_16
     RDKit          3D

 24 25  0  0  0  0  0  0  0  0999 V2000
   -4.6124    0.6266   -0.0105 C   0  0  0  0  0  0  0  0  0  0  0  0
   -3.7914   -0.6017   -0.4242 C   0  0  0  0  0  0  0  0  0  0  0  0
   -2.4443   -0.2496   -0.2216 O   0  0  0  0  0  0  0  0  0  0  0  0
   -1.3943   -1.0999   -0.4824 C   0  0  0  0  0  0  0  0  0  0  0  0
   -1.6296   -2.2339   -0.9171 O   0  0  0  0  0  0  0  0  0  0  0  0
   -0.0184   -0.6399   -0.2380 C   0  0  0  0  0  0  0  0  0  0  0  0
    1.1409   -1.3662   -0.4469 C   0  0  0  0  0  0  0  0  0  0  0  0
    2.2002   -0.5559   -0.0889 C   0  0  0  0  0  0  0  0  0  0  0  0
    3.5724   -0.6698   -0.0584 C   0  0  0  0  0  0  0  0  0  0  0  0
    4.3630    0.3871    0.3770 C   0  0  0  0  0  0  0  0  0  0  0  0
    3.7546    1.5728    0.7862 C   0  0  0  0  0  0  0  0  0  0  0  0
    2.3814    1.7108    0.7647 C   0  0  0  0  0  0  0  0  0  0  0  0
    1.6461    0.6373    0.3259 C   0  0  0  0  0  0  0  0  0  0  0  0
    0.3434    0.5265    0.2155 O   0  0  0  0  0  0  0  0  0  0  0  0
   -4.0282    1.5185   -0.3450 H   0  0  0  0  0  0  0  0  0  0  0  0
   -5.6019    0.6470   -0.4891 H   0  0  0  0  0  0  0  0  0  0  0  0
   -4.6440    0.6688    1.0852 H   0  0  0  0  0  0  0  0  0  0  0  0
   -4.1318   -1.4311    0.2349 H   0  0  0  0  0  0  0  0  0  0  0  0
   -4.0536   -0.8441   -1.4627 H   0  0  0  0  0  0  0  0  0  0  0  0
    1.2365   -2.3765   -0.8180 H   0  0  0  0  0  0  0  0  0  0  0  0
    4.0238   -1.5835   -0.3747 H   0  0  0  0  0  0  0  0  0  0  0  0
    5.4528    0.3200    0.4100 H   0  0  0  0  0  0  0  0  0  0  0  0
    4.3232    2.4137    1.1295 H   0  0  0  0  0  0  0  0  0  0  0  0
    1.9116    2.6233    1.0795 H   0  0  0  0  0  0  0  0  0  0  0  0
  1  2  1  0
  2  3  1  0
  3  4  1  0
  4  5  2  0
  4  6  1  0
  6  7  2  0
  7  8  1  0
  8  9  2  0
  9 10  1  0
 10 11  2  0
 11 12  1  0
 12 13  2  0
 13 14  1  0
 14  6  1  0
 13  8  1  0
  1 15  1  0
  1 16  1  0
  1 17  1  0
  2 18  1  0
  2 19  1  0
  7 20  1  0
  9 21  1  0
 10 22  1  0
 11 23  1  0
 12 24  1  0
M  END
>  <coordinate_phase>  (17) 
ETKDG_before_MMFF

>  <molecule_id>  (17) 
benzofuran_ester

>  <seed>  (17) 
20260930

>  <conformer_id>  (17) 
16

$$$$
benzofuran_ester_20260930_17
     RDKit          3D

 24 25  0  0  0  0  0  0  0  0999 V2000
   -4.4135    0.4479   -0.1549 C   0  0  0  0  0  0  0  0  0  0  0  0
   -3.7961   -0.7709    0.4992 C   0  0  0  0  0  0  0  0  0  0  0  0
   -2.4186   -0.5783    0.5576 O   0  0  0  0  0  0  0  0  0  0  0  0
   -1.5776   -0.3862   -0.5070 C   0  0  0  0  0  0  0  0  0  0  0  0
   -2.0425   -0.3729   -1.6815 O   0  0  0  0  0  0  0  0  0  0  0  0
   -0.1400   -0.1942   -0.3154 C   0  0  0  0  0  0  0  0  0  0  0  0
    0.7927    0.0065   -1.3124 C   0  0  0  0  0  0  0  0  0  0  0  0
    2.0035    0.1333   -0.6352 C   0  0  0  0  0  0  0  0  0  0  0  0
    3.2994    0.3452   -1.0345 C   0  0  0  0  0  0  0  0  0  0  0  0
    4.3538    0.4343   -0.1304 C   0  0  0  0  0  0  0  0  0  0  0  0
    4.0458    0.2993    1.2135 C   0  0  0  0  0  0  0  0  0  0  0  0
    2.7645    0.0856    1.6692 C   0  0  0  0  0  0  0  0  0  0  0  0
    1.7597    0.0069    0.7160 C   0  0  0  0  0  0  0  0  0  0  0  0
    0.4666   -0.1866    0.8502 O   0  0  0  0  0  0  0  0  0  0  0  0
   -3.6305    1.1018   -0.6217 H   0  0  0  0  0  0  0  0  0  0  0  0
   -4.9932    1.0439    0.6015 H   0  0  0  0  0  0  0  0  0  0  0  0
   -5.0886    0.1512   -0.9848 H   0  0  0  0  0  0  0  0  0  0  0  0
   -4.0947   -1.7164    0.0146 H   0  0  0  0  0  0  0  0  0  0  0  0
   -4.1544   -0.8188    1.5621 H   0  0  0  0  0  0  0  0  0  0  0  0
    0.6394    0.0579   -2.3937 H   0  0  0  0  0  0  0  0  0  0  0  0
    3.4731    0.4430   -2.1126 H   0  0  0  0  0  0  0  0  0  0  0  0
    5.3680    0.6020   -0.4698 H   0  0  0  0  0  0  0  0  0  0  0  0
    4.8514    0.3653    1.9336 H   0  0  0  0  0  0  0  0  0  0  0  0
    2.5315   -0.0200    2.7364 H   0  0  0  0  0  0  0  0  0  0  0  0
  1  2  1  0
  2  3  1  0
  3  4  1  0
  4  5  2  0
  4  6  1  0
  6  7  2  0
  7  8  1  0
  8  9  2  0
  9 10  1  0
 10 11  2  0
 11 12  1  0
 12 13  2  0
 13 14  1  0
 14  6  1  0
 13  8  1  0
  1 15  1  0
  1 16  1  0
  1 17  1  0
  2 18  1  0
  2 19  1  0
  7 20  1  0
  9 21  1  0
 10 22  1  0
 11 23  1  0
 12 24  1  0
M  END
>  <coordinate_phase>  (18) 
ETKDG_before_MMFF

>  <molecule_id>  (18) 
benzofuran_ester

>  <seed>  (18) 
20260930

>  <conformer_id>  (18) 
17

$$$$
