caffeine_20260928_0
     RDKit          3D

 24 25  0  0  0  0  0  0  0  0999 V2000
    2.7331    0.5516   -1.8257 C   0  0  0  0  0  0  0  0  0  0  0  0
    1.9145    0.7531   -0.6572 N   0  0  0  0  0  0  0  0  0  0  0  0
    2.2117    1.5594    0.4097 C   0  0  0  0  0  0  0  0  0  0  0  0
    1.2598    1.5299    1.3214 N   0  0  0  0  0  0  0  0  0  0  0  0
    0.3293    0.6753    0.8123 C   0  0  0  0  0  0  0  0  0  0  0  0
    0.7014    0.1814   -0.4010 C   0  0  0  0  0  0  0  0  0  0  0  0
   -0.0922   -0.7314   -1.1471 C   0  0  0  0  0  0  0  0  0  0  0  0
    0.2525   -1.1708   -2.2401 O   0  0  0  0  0  0  0  0  0  0  0  0
   -1.2871   -1.0626   -0.5014 N   0  0  0  0  0  0  0  0  0  0  0  0
   -2.1868   -1.9880   -1.1617 C   0  0  0  0  0  0  0  0  0  0  0  0
   -1.7074   -0.5730    0.7533 C   0  0  0  0  0  0  0  0  0  0  0  0
   -2.7845   -0.9257    1.2431 O   0  0  0  0  0  0  0  0  0  0  0  0
   -0.8569    0.3193    1.4069 N   0  0  0  0  0  0  0  0  0  0  0  0
   -1.2152    0.8693    2.7014 C   0  0  0  0  0  0  0  0  0  0  0  0
    3.6457    1.1467   -1.7385 H   0  0  0  0  0  0  0  0  0  0  0  0
    2.1684    0.8702   -2.7054 H   0  0  0  0  0  0  0  0  0  0  0  0
    2.9899   -0.5086   -1.8922 H   0  0  0  0  0  0  0  0  0  0  0  0
    3.1238    2.1398    0.4726 H   0  0  0  0  0  0  0  0  0  0  0  0
   -2.3418   -2.8569   -0.5136 H   0  0  0  0  0  0  0  0  0  0  0  0
   -3.1527   -1.4958   -1.3163 H   0  0  0  0  0  0  0  0  0  0  0  0
   -1.8051   -2.3298   -2.1268 H   0  0  0  0  0  0  0  0  0  0  0  0
   -2.1827    0.4977    3.0489 H   0  0  0  0  0  0  0  0  0  0  0  0
   -1.2672    1.9599    2.6243 H   0  0  0  0  0  0  0  0  0  0  0  0
   -0.4504    0.5891    3.4328 H   0  0  0  0  0  0  0  0  0  0  0  0
  1  2  1  0
  2  3  1  0
  3  4  2  0
  4  5  1  0
  5  6  2  0
  6  7  1  0
  7  8  2  0
  7  9  1  0
  9 10  1  0
  9 11  1  0
 11 12  2  0
 11 13  1  0
 13 14  1  0
  6  2  1  0
 13  5  1  0
  1 15  1  0
  1 16  1  0
  1 17  1  0
  3 18  1  0
 10 19  1  0
 10 20  1  0
 10 21  1  0
 14 22  1  0
 14 23  1  0
 14 24  1  0
M  END
>  <coordinate_phase>  (1) 
MMFF94_after_optimization_status_retained

>  <molecule_id>  (1) 
caffeine

>  <seed>  (1) 
20260928

>  <conformer_id>  (1) 
0

>  <optimization_status>  (1) 
0

>  <energy_kcal_mol>  (1) 
-122.52841049105677

>  <sasa_A2>  (1) 
371.05947664730365

>  <sasa_orientation_sd_A2>  (1) 
1.3945331710257982

>  <sasa_orientation_range_A2>  (1) 
6.422957782422941

>  <sasa_first_half_vs_all_abs_delta_A2>  (1) 
0.3728167408268632

>  <mass_weighted_Rg_A>  (1) 
2.464656398719341

>  <unweighted_Rg_A>  (1) 
3.0023770794632414

$$$$
caffeine_20260929_1
     RDKit          3D

 24 25  0  0  0  0  0  0  0  0999 V2000
    3.1471    1.0342   -0.1468 C   0  0  0  0  0  0  0  0  0  0  0  0
    2.1345    0.0098   -0.1106 N   0  0  0  0  0  0  0  0  0  0  0  0
    2.3342   -1.3323   -0.2992 C   0  0  0  0  0  0  0  0  0  0  0  0
    1.2071   -2.0096   -0.2045 N   0  0  0  0  0  0  0  0  0  0  0  0
    0.2629   -1.0620    0.0529 C   0  0  0  0  0  0  0  0  0  0  0  0
    0.8000    0.1878    0.1167 C   0  0  0  0  0  0  0  0  0  0  0  0
    0.0300    1.3544    0.3728 C   0  0  0  0  0  0  0  0  0  0  0  0
    0.5240    2.4766    0.4281 O   0  0  0  0  0  0  0  0  0  0  0  0
   -1.3288    1.0776    0.5504 N   0  0  0  0  0  0  0  0  0  0  0  0
   -2.2227    2.1869    0.8189 C   0  0  0  0  0  0  0  0  0  0  0  0
   -1.9224   -0.2010    0.4918 C   0  0  0  0  0  0  0  0  0  0  0  0
   -3.1368   -0.3446    0.6625 O   0  0  0  0  0  0  0  0  0  0  0  0
   -1.0806   -1.2835    0.2345 N   0  0  0  0  0  0  0  0  0  0  0  0
   -1.6121   -2.6320    0.1581 C   0  0  0  0  0  0  0  0  0  0  0  0
    3.1712    1.5343    0.8246 H   0  0  0  0  0  0  0  0  0  0  0  0
    4.1195    0.5786   -0.3507 H   0  0  0  0  0  0  0  0  0  0  0  0
    2.8982    1.7418   -0.9416 H   0  0  0  0  0  0  0  0  0  0  0  0
    3.3087   -1.7598   -0.5001 H   0  0  0  0  0  0  0  0  0  0  0  0
   -2.7196    2.0187    1.7800 H   0  0  0  0  0  0  0  0  0  0  0  0
   -2.9878    2.2245    0.0364 H   0  0  0  0  0  0  0  0  0  0  0  0
   -1.7030    3.1476    0.8524 H   0  0  0  0  0  0  0  0  0  0  0  0
   -1.4014   -3.0435   -0.8341 H   0  0  0  0  0  0  0  0  0  0  0  0
   -1.1295   -3.2501    0.9219 H   0  0  0  0  0  0  0  0  0  0  0  0
   -2.6925   -2.6546    0.3227 H   0  0  0  0  0  0  0  0  0  0  0  0
  1  2  1  0
  2  3  1  0
  3  4  2  0
  4  5  1  0
  5  6  2  0
  6  7  1  0
  7  8  2  0
  7  9  1  0
  9 10  1  0
  9 11  1  0
 11 12  2  0
 11 13  1  0
 13 14  1  0
  6  2  1  0
 13  5  1  0
  1 15  1  0
  1 16  1  0
  1 17  1  0
  3 18  1  0
 10 19  1  0
 10 20  1  0
 10 21  1  0
 14 22  1  0
 14 23  1  0
 14 24  1  0
M  END
>  <coordinate_phase>  (2) 
MMFF94_after_optimization_status_retained

>  <molecule_id>  (2) 
caffeine

>  <seed>  (2) 
20260929

>  <conformer_id>  (2) 
1

>  <optimization_status>  (2) 
0

>  <energy_kcal_mol>  (2) 
-122.5284101393158

>  <sasa_A2>  (2) 
370.27828136254783

>  <sasa_orientation_sd_A2>  (2) 
1.709210260845096

>  <sasa_orientation_range_A2>  (2) 
8.734201596413982

>  <sasa_first_half_vs_all_abs_delta_A2>  (2) 
0.29468498075777916

>  <mass_weighted_Rg_A>  (2) 
2.464659190210327

>  <unweighted_Rg_A>  (2) 
3.002381216427868

$$$$
caffeine_20260930_2
     RDKit          3D

 24 25  0  0  0  0  0  0  0  0999 V2000
    3.2518    0.5358   -0.6325 C   0  0  0  0  0  0  0  0  0  0  0  0
    2.1284   -0.3131   -0.3271 N   0  0  0  0  0  0  0  0  0  0  0  0
    2.1778   -1.6562   -0.0615 C   0  0  0  0  0  0  0  0  0  0  0  0
    0.9789   -2.1483    0.1807 N   0  0  0  0  0  0  0  0  0  0  0  0
    0.1436   -1.0786    0.0640 C   0  0  0  0  0  0  0  0  0  0  0  0
    0.8183    0.0627   -0.2470 C   0  0  0  0  0  0  0  0  0  0  0  0
    0.1809    1.3204   -0.4252 C   0  0  0  0  0  0  0  0  0  0  0  0
    0.7985    2.3434   -0.7054 O   0  0  0  0  0  0  0  0  0  0  0  0
   -1.2041    1.2550   -0.2470 N   0  0  0  0  0  0  0  0  0  0  0  0
   -1.9713    2.4753   -0.4022 C   0  0  0  0  0  0  0  0  0  0  0  0
   -1.9383    0.0941    0.0751 C   0  0  0  0  0  0  0  0  0  0  0  0
   -3.1647    0.1372    0.2125 O   0  0  0  0  0  0  0  0  0  0  0  0
   -1.2202   -1.0922    0.2292 N   0  0  0  0  0  0  0  0  0  0  0  0
   -1.9002   -2.3309    0.5606 C   0  0  0  0  0  0  0  0  0  0  0  0
    3.3116    1.3204    0.1259 H   0  0  0  0  0  0  0  0  0  0  0  0
    3.1028    0.9665   -1.6257 H   0  0  0  0  0  0  0  0  0  0  0  0
    4.1701   -0.0569   -0.6222 H   0  0  0  0  0  0  0  0  0  0  0  0
    3.1013   -2.2217   -0.0572 H   0  0  0  0  0  0  0  0  0  0  0  0
   -2.5042    2.6816    0.5319 H   0  0  0  0  0  0  0  0  0  0  0  0
   -1.3464    3.3366   -0.6510 H   0  0  0  0  0  0  0  0  0  0  0  0
   -2.7106    2.3320   -1.1972 H   0  0  0  0  0  0  0  0  0  0  0  0
   -1.5085   -2.7108    1.5095 H   0  0  0  0  0  0  0  0  0  0  0  0
   -2.9796   -2.1896    0.6603 H   0  0  0  0  0  0  0  0  0  0  0  0
   -1.7156   -3.0629   -0.2320 H   0  0  0  0  0  0  0  0  0  0  0  0
  1  2  1  0
  2  3  1  0
  3  4  2  0
  4  5  1  0
  5  6  2  0
  6  7  1  0
  7  8  2  0
  7  9  1  0
  9 10  1  0
  9 11  1  0
 11 12  2  0
 11 13  1  0
 13 14  1  0
  6  2  1  0
 13  5  1  0
  1 15  1  0
  1 16  1  0
  1 17  1  0
  3 18  1  0
 10 19  1  0
 10 20  1  0
 10 21  1  0
 14 22  1  0
 14 23  1  0
 14 24  1  0
M  END
>  <coordinate_phase>  (3) 
MMFF94_after_optimization_status_retained

>  <molecule_id>  (3) 
caffeine

>  <seed>  (3) 
20260930

>  <conformer_id>  (3) 
2

>  <optimization_status>  (3) 
0

>  <energy_kcal_mol>  (3) 
-122.52841041033044

>  <sasa_A2>  (3) 
370.8726166329929

>  <sasa_orientation_sd_A2>  (3) 
1.1537335726153137

>  <sasa_orientation_range_A2>  (3) 
4.79509685985073

>  <sasa_first_half_vs_all_abs_delta_A2>  (3) 
0.2400521169640797

>  <mass_weighted_Rg_A>  (3) 
2.4646580809168723

>  <unweighted_Rg_A>  (3) 
3.002379913724785

$$$$
