caffeine_20260928_0
     RDKit          3D

 24 25  0  0  0  0  0  0  0  0999 V2000
    2.6841    0.5888   -1.8981 C   0  0  0  0  0  0  0  0  0  0  0  0
    1.9441    0.7690   -0.6705 N   0  0  0  0  0  0  0  0  0  0  0  0
    2.2958    1.4932    0.4160 C   0  0  0  0  0  0  0  0  0  0  0  0
    1.3410    1.4156    1.3606 N   0  0  0  0  0  0  0  0  0  0  0  0
    0.3587    0.6457    0.9097 C   0  0  0  0  0  0  0  0  0  0  0  0
    0.7318    0.2412   -0.3562 C   0  0  0  0  0  0  0  0  0  0  0  0
   -0.1487   -0.5843   -1.0397 C   0  0  0  0  0  0  0  0  0  0  0  0
    0.1539   -0.9753   -2.1962 O   0  0  0  0  0  0  0  0  0  0  0  0
   -1.3127   -0.9712   -0.4908 N   0  0  0  0  0  0  0  0  0  0  0  0
   -2.2248   -1.8392   -1.2253 C   0  0  0  0  0  0  0  0  0  0  0  0
   -1.6723   -0.5650    0.7628 C   0  0  0  0  0  0  0  0  0  0  0  0
   -2.7747   -0.9601    1.2235 O   0  0  0  0  0  0  0  0  0  0  0  0
   -0.8200    0.2264    1.4087 N   0  0  0  0  0  0  0  0  0  0  0  0
   -1.1745    0.6756    2.7450 C   0  0  0  0  0  0  0  0  0  0  0  0
    3.3765    1.4426   -2.0640 H   0  0  0  0  0  0  0  0  0  0  0  0
    2.0077    0.4545   -2.7625 H   0  0  0  0  0  0  0  0  0  0  0  0
    3.2613   -0.3703   -1.7943 H   0  0  0  0  0  0  0  0  0  0  0  0
    3.2152    2.0720    0.5460 H   0  0  0  0  0  0  0  0  0  0  0  0
   -2.7577   -2.4553   -0.4529 H   0  0  0  0  0  0  0  0  0  0  0  0
   -2.9801   -1.2432   -1.7554 H   0  0  0  0  0  0  0  0  0  0  0  0
   -1.6584   -2.5454   -1.8639 H   0  0  0  0  0  0  0  0  0  0  0  0
   -1.8676   -0.0226    3.2523 H   0  0  0  0  0  0  0  0  0  0  0  0
   -1.7040    1.6459    2.6177 H   0  0  0  0  0  0  0  0  0  0  0  0
   -0.2746    0.8613    3.3275 H   0  0  0  0  0  0  0  0  0  0  0  0
  1  2  1  0
  2  3  1  0
  3  4  2  0
  4  5  1  0
  5  6  2  0
  6  7  1  0
  7  8  2  0
  7  9  1  0
  9 10  1  0
  9 11  1  0
 11 12  2  0
 11 13  1  0
 13 14  1  0
  6  2  1  0
 13  5  1  0
  1 15  1  0
  1 16  1  0
  1 17  1  0
  3 18  1  0
 10 19  1  0
 10 20  1  0
 10 21  1  0
 14 22  1  0
 14 23  1  0
 14 24  1  0
M  END
>  <coordinate_phase>  (1) 
ETKDG_before_MMFF

>  <molecule_id>  (1) 
caffeine

>  <seed>  (1) 
20260928

>  <conformer_id>  (1) 
0

$$$$
caffeine_20260929_1
     RDKit          3D

 24 25  0  0  0  0  0  0  0  0999 V2000
    3.1265    1.0761    0.2524 C   0  0  0  0  0  0  0  0  0  0  0  0
    2.1777    0.0010    0.1760 N   0  0  0  0  0  0  0  0  0  0  0  0
    2.4626   -1.3005    0.0551 C   0  0  0  0  0  0  0  0  0  0  0  0
    1.3046   -1.9969    0.0164 N   0  0  0  0  0  0  0  0  0  0  0  0
    0.2827   -1.0979    0.1162 C   0  0  0  0  0  0  0  0  0  0  0  0
    0.8442    0.1679    0.2171 C   0  0  0  0  0  0  0  0  0  0  0  0
   -0.0256    1.2327    0.3286 C   0  0  0  0  0  0  0  0  0  0  0  0
    0.4488    2.3964    0.4222 O   0  0  0  0  0  0  0  0  0  0  0  0
   -1.3657    1.0034    0.3348 N   0  0  0  0  0  0  0  0  0  0  0  0
   -2.2240    2.1600    0.4542 C   0  0  0  0  0  0  0  0  0  0  0  0
   -1.8802   -0.2390    0.2350 C   0  0  0  0  0  0  0  0  0  0  0  0
   -3.1327   -0.3848    0.2469 O   0  0  0  0  0  0  0  0  0  0  0  0
   -1.0417   -1.2955    0.1249 N   0  0  0  0  0  0  0  0  0  0  0  0
   -1.6562   -2.6099    0.0207 C   0  0  0  0  0  0  0  0  0  0  0  0
    2.7009    1.9084    0.8224 H   0  0  0  0  0  0  0  0  0  0  0  0
    4.0089    0.6946    0.7855 H   0  0  0  0  0  0  0  0  0  0  0  0
    3.3506    1.3952   -0.7881 H   0  0  0  0  0  0  0  0  0  0  0  0
    3.4619   -1.7020   -0.0001 H   0  0  0  0  0  0  0  0  0  0  0  0
   -2.3631    2.3421    1.5544 H   0  0  0  0  0  0  0  0  0  0  0  0
   -3.2404    1.9663    0.0024 H   0  0  0  0  0  0  0  0  0  0  0  0
   -1.7373    3.0237   -0.0515 H   0  0  0  0  0  0  0  0  0  0  0  0
   -2.1818   -2.6412   -0.9562 H   0  0  0  0  0  0  0  0  0  0  0  0
   -0.9049   -3.4185    0.0482 H   0  0  0  0  0  0  0  0  0  0  0  0
   -2.4157   -2.6814    0.8197 H   0  0  0  0  0  0  0  0  0  0  0  0
  1  2  1  0
  2  3  1  0
  3  4  2  0
  4  5  1  0
  5  6  2  0
  6  7  1  0
  7  8  2  0
  7  9  1  0
  9 10  1  0
  9 11  1  0
 11 12  2  0
 11 13  1  0
 13 14  1  0
  6  2  1  0
 13  5  1  0
  1 15  1  0
  1 16  1  0
  1 17  1  0
  3 18  1  0
 10 19  1  0
 10 20  1  0
 10 21  1  0
 14 22  1  0
 14 23  1  0
 14 24  1  0
M  END
>  <coordinate_phase>  (2) 
ETKDG_before_MMFF

>  <molecule_id>  (2) 
caffeine

>  <seed>  (2) 
20260929

>  <conformer_id>  (2) 
1

$$$$
caffeine_20260930_2
     RDKit          3D

 24 25  0  0  0  0  0  0  0  0999 V2000
    3.2328    0.6424   -0.3904 C   0  0  0  0  0  0  0  0  0  0  0  0
    2.1184   -0.2692   -0.3049 N   0  0  0  0  0  0  0  0  0  0  0  0
    2.2626   -1.6070   -0.3125 C   0  0  0  0  0  0  0  0  0  0  0  0
    1.0164   -2.1424   -0.2181 N   0  0  0  0  0  0  0  0  0  0  0  0
    0.0908   -1.1689   -0.1511 C   0  0  0  0  0  0  0  0  0  0  0  0
    0.8058    0.0116   -0.2074 C   0  0  0  0  0  0  0  0  0  0  0  0
    0.1067    1.2001   -0.1578 C   0  0  0  0  0  0  0  0  0  0  0  0
    0.7266    2.2915   -0.2067 O   0  0  0  0  0  0  0  0  0  0  0  0
   -1.2359    1.2568   -0.0575 N   0  0  0  0  0  0  0  0  0  0  0  0
   -1.9563    2.5023   -0.0066 C   0  0  0  0  0  0  0  0  0  0  0  0
   -1.8957    0.0714   -0.0054 C   0  0  0  0  0  0  0  0  0  0  0  0
   -3.1514    0.0807    0.0885 O   0  0  0  0  0  0  0  0  0  0  0  0
   -1.2521   -1.1119   -0.0508 N   0  0  0  0  0  0  0  0  0  0  0  0
   -1.9483   -2.3892    0.0043 C   0  0  0  0  0  0  0  0  0  0  0  0
    2.9842    1.6855   -0.2138 H   0  0  0  0  0  0  0  0  0  0  0  0
    3.7186    0.4930   -1.3765 H   0  0  0  0  0  0  0  0  0  0  0  0
    3.9481    0.3605    0.4283 H   0  0  0  0  0  0  0  0  0  0  0  0
    3.1846   -2.1938   -0.3801 H   0  0  0  0  0  0  0  0  0  0  0  0
   -1.7581    2.9667    1.0016 H   0  0  0  0  0  0  0  0  0  0  0  0
   -1.6851    3.2128   -0.8214 H   0  0  0  0  0  0  0  0  0  0  0  0
   -3.0379    2.2915   -0.1190 H   0  0  0  0  0  0  0  0  0  0  0  0
   -1.3905   -3.0151    0.7505 H   0  0  0  0  0  0  0  0  0  0  0  0
   -2.9682   -2.2523    0.4041 H   0  0  0  0  0  0  0  0  0  0  0  0
   -1.9162   -2.9171   -0.9805 H   0  0  0  0  0  0  0  0  0  0  0  0
  1  2  1  0
  2  3  1  0
  3  4  2  0
  4  5  1  0
  5  6  2  0
  6  7  1  0
  7  8  2  0
  7  9  1  0
  9 10  1  0
  9 11  1  0
 11 12  2  0
 11 13  1  0
 13 14  1  0
  6  2  1  0
 13  5  1  0
  1 15  1  0
  1 16  1  0
  1 17  1  0
  3 18  1  0
 10 19  1  0
 10 20  1  0
 10 21  1  0
 14 22  1  0
 14 23  1  0
 14 24  1  0
M  END
>  <coordinate_phase>  (3) 
ETKDG_before_MMFF

>  <molecule_id>  (3) 
caffeine

>  <seed>  (3) 
20260930

>  <conformer_id>  (3) 
2

$$$$
