indoline_20260928_0
     RDKit          3D

 18 19  0  0  0  0  0  0  0  0999 V2000
    2.3267   -0.5213   -0.3592 C   0  0  0  0  0  0  0  0  0  0  0  0
    2.2454    0.8808   -0.3765 C   0  0  0  0  0  0  0  0  0  0  0  0
    1.0262    1.5267   -0.1504 C   0  0  0  0  0  0  0  0  0  0  0  0
   -0.0974    0.7516    0.0643 C   0  0  0  0  0  0  0  0  0  0  0  0
   -0.0084   -0.6400    0.1015 C   0  0  0  0  0  0  0  0  0  0  0  0
    1.1921   -1.2955   -0.1087 C   0  0  0  0  0  0  0  0  0  0  0  0
   -1.3458   -1.2044    0.4338 C   0  0  0  0  0  0  0  0  0  0  0  0
   -2.2319    0.0334    0.2001 C   0  0  0  0  0  0  0  0  0  0  0  0
   -1.3935    1.2332    0.3751 N   0  0  0  0  0  0  0  0  0  0  0  0
    3.2854   -1.0059   -0.5273 H   0  0  0  0  0  0  0  0  0  0  0  0
    3.1418    1.4697   -0.5537 H   0  0  0  0  0  0  0  0  0  0  0  0
    0.9690    2.6091   -0.1360 H   0  0  0  0  0  0  0  0  0  0  0  0
    1.2561   -2.3777   -0.0719 H   0  0  0  0  0  0  0  0  0  0  0  0
   -1.6355   -2.0344   -0.2161 H   0  0  0  0  0  0  0  0  0  0  0  0
   -1.3738   -1.5173    1.4826 H   0  0  0  0  0  0  0  0  0  0  0  0
   -3.0841    0.0509    0.8870 H   0  0  0  0  0  0  0  0  0  0  0  0
   -2.6301    0.0229   -0.8234 H   0  0  0  0  0  0  0  0  0  0  0  0
   -1.6423    2.0182   -0.2210 H   0  0  0  0  0  0  0  0  0  0  0  0
  1  2  2  0
  2  3  1  0
  3  4  2  0
  4  5  1  0
  5  6  2  0
  5  7  1  0
  7  8  1  0
  8  9  1  0
  6  1  1  0
  9  4  1  0
  1 10  1  0
  2 11  1  0
  3 12  1  0
  6 13  1  0
  7 14  1  0
  7 15  1  0
  8 16  1  0
  8 17  1  0
  9 18  1  0
M  END
>  <coordinate_phase>  (1) 
MMFF94_after_optimization_status_retained

>  <molecule_id>  (1) 
indoline

>  <seed>  (1) 
20260928

>  <conformer_id>  (1) 
0

>  <optimization_status>  (1) 
0

>  <energy_kcal_mol>  (1) 
22.438266527047375

>  <sasa_A2>  (1) 
300.34400109940947

>  <sasa_orientation_sd_A2>  (1) 
1.260125796149656

>  <sasa_orientation_range_A2>  (1) 
6.027194161371426

>  <sasa_first_half_vs_all_abs_delta_A2>  (1) 
0.18849712968051335

>  <mass_weighted_Rg_A>  (1) 
1.9619458399044774

>  <unweighted_Rg_A>  (1) 
2.4580032418955486

$$$$
indoline_20260928_1
     RDKit          3D

 18 19  0  0  0  0  0  0  0  0999 V2000
    2.3286   -0.6193    0.0993 C   0  0  0  0  0  0  0  0  0  0  0  0
    2.3281    0.7443   -0.2348 C   0  0  0  0  0  0  0  0  0  0  0  0
    1.1244    1.4370   -0.3918 C   0  0  0  0  0  0  0  0  0  0  0  0
   -0.0603    0.7427   -0.2323 C   0  0  0  0  0  0  0  0  0  0  0  0
   -0.0564   -0.6051    0.1178 C   0  0  0  0  0  0  0  0  0  0  0  0
    1.1265   -1.3045    0.2873 C   0  0  0  0  0  0  0  0  0  0  0  0
   -1.4534   -1.0635    0.3341 C   0  0  0  0  0  0  0  0  0  0  0  0
   -2.2406    0.1245   -0.2439 C   0  0  0  0  0  0  0  0  0  0  0  0
   -1.3597    1.3117   -0.3083 N   0  0  0  0  0  0  0  0  0  0  0  0
    3.2741   -1.1421    0.2222 H   0  0  0  0  0  0  0  0  0  0  0  0
    3.2716    1.2668   -0.3706 H   0  0  0  0  0  0  0  0  0  0  0  0
    1.1194    2.4907   -0.6479 H   0  0  0  0  0  0  0  0  0  0  0  0
    1.1249   -2.3522    0.5684 H   0  0  0  0  0  0  0  0  0  0  0  0
   -1.6840   -1.9934   -0.1928 H   0  0  0  0  0  0  0  0  0  0  0  0
   -1.6525   -1.1803    1.4044 H   0  0  0  0  0  0  0  0  0  0  0  0
   -2.5729   -0.1102   -1.2633 H   0  0  0  0  0  0  0  0  0  0  0  0
   -3.1375    0.3365    0.3483 H   0  0  0  0  0  0  0  0  0  0  0  0
   -1.4803    1.9165    0.5036 H   0  0  0  0  0  0  0  0  0  0  0  0
  1  2  2  0
  2  3  1  0
  3  4  2  0
  4  5  1  0
  5  6  2  0
  5  7  1  0
  7  8  1  0
  8  9  1  0
  6  1  1  0
  9  4  1  0
  1 10  1  0
  2 11  1  0
  3 12  1  0
  6 13  1  0
  7 14  1  0
  7 15  1  0
  8 16  1  0
  8 17  1  0
  9 18  1  0
M  END
>  <coordinate_phase>  (2) 
MMFF94_after_optimization_status_retained

>  <molecule_id>  (2) 
indoline

>  <seed>  (2) 
20260928

>  <conformer_id>  (2) 
1

>  <optimization_status>  (2) 
0

>  <energy_kcal_mol>  (2) 
23.992131739109126

>  <sasa_A2>  (2) 
300.39169949942857

>  <sasa_orientation_sd_A2>  (2) 
1.5092378106615465

>  <sasa_orientation_range_A2>  (2) 
5.597928316273567

>  <sasa_first_half_vs_all_abs_delta_A2>  (2) 
0.21666136032155237

>  <mass_weighted_Rg_A>  (2) 
1.963293662931256

>  <unweighted_Rg_A>  (2) 
2.453708456896422

$$$$
indoline_20260929_2
     RDKit          3D

 18 19  0  0  0  0  0  0  0  0999 V2000
    2.2727    0.8036    0.0577 C   0  0  0  0  0  0  0  0  0  0  0  0
    2.3578   -0.5871    0.2355 C   0  0  0  0  0  0  0  0  0  0  0  0
    1.2009   -1.3695    0.2981 C   0  0  0  0  0  0  0  0  0  0  0  0
   -0.0231   -0.7442    0.1553 C   0  0  0  0  0  0  0  0  0  0  0  0
   -0.1041    0.6396   -0.0001 C   0  0  0  0  0  0  0  0  0  0  0  0
    1.0302    1.4308   -0.0528 C   0  0  0  0  0  0  0  0  0  0  0  0
   -1.5372    1.0415   -0.0421 C   0  0  0  0  0  0  0  0  0  0  0  0
   -2.2006   -0.3302   -0.2654 C   0  0  0  0  0  0  0  0  0  0  0  0
   -1.2922   -1.3661    0.2589 N   0  0  0  0  0  0  0  0  0  0  0  0
    3.1830    1.3972    0.0213 H   0  0  0  0  0  0  0  0  0  0  0  0
    3.3322   -1.0577    0.3393 H   0  0  0  0  0  0  0  0  0  0  0  0
    1.2657   -2.4389    0.4634 H   0  0  0  0  0  0  0  0  0  0  0  0
    0.9604    2.5072   -0.1671 H   0  0  0  0  0  0  0  0  0  0  0  0
   -1.8369    1.4730    0.9186 H   0  0  0  0  0  0  0  0  0  0  0  0
   -1.7654    1.7354   -0.8555 H   0  0  0  0  0  0  0  0  0  0  0  0
   -3.1783   -0.3864    0.2241 H   0  0  0  0  0  0  0  0  0  0  0  0
   -2.3561   -0.5025   -1.3389 H   0  0  0  0  0  0  0  0  0  0  0  0
   -1.3089   -2.2457   -0.2504 H   0  0  0  0  0  0  0  0  0  0  0  0
  1  2  2  0
  2  3  1  0
  3  4  2  0
  4  5  1  0
  5  6  2  0
  5  7  1  0
  7  8  1  0
  8  9  1  0
  6  1  1  0
  9  4  1  0
  1 10  1  0
  2 11  1  0
  3 12  1  0
  6 13  1  0
  7 14  1  0
  7 15  1  0
  8 16  1  0
  8 17  1  0
  9 18  1  0
M  END
>  <coordinate_phase>  (3) 
MMFF94_after_optimization_status_retained

>  <molecule_id>  (3) 
indoline

>  <seed>  (3) 
20260929

>  <conformer_id>  (3) 
2

>  <optimization_status>  (3) 
0

>  <energy_kcal_mol>  (3) 
22.438266524344453

>  <sasa_A2>  (3) 
300.8392759999426

>  <sasa_orientation_sd_A2>  (3) 
1.2529601747875503

>  <sasa_orientation_range_A2>  (3) 
5.2462778624494035

>  <sasa_first_half_vs_all_abs_delta_A2>  (3) 
0.1801192299656691

>  <mass_weighted_Rg_A>  (3) 
1.9619459892195346

>  <unweighted_Rg_A>  (3) 
2.4580034997539832

$$$$
indoline_20260929_3
     RDKit          3D

 18 19  0  0  0  0  0  0  0  0999 V2000
    2.2463    0.7047   -0.5231 C   0  0  0  0  0  0  0  0  0  0  0  0
    2.3940   -0.5304    0.1279 C   0  0  0  0  0  0  0  0  0  0  0  0
    1.2749   -1.2286    0.5899 C   0  0  0  0  0  0  0  0  0  0  0  0
    0.0261   -0.6636    0.4101 C   0  0  0  0  0  0  0  0  0  0  0  0
   -0.1186    0.5525   -0.2527 C   0  0  0  0  0  0  0  0  0  0  0  0
    0.9781    1.2528   -0.7260 C   0  0  0  0  0  0  0  0  0  0  0  0
   -1.5638    0.8633   -0.4050 C   0  0  0  0  0  0  0  0  0  0  0  0
   -2.1858   -0.1853    0.5323 C   0  0  0  0  0  0  0  0  0  0  0  0
   -1.2065   -1.2677    0.7757 N   0  0  0  0  0  0  0  0  0  0  0  0
    3.1272    1.2326   -0.8804 H   0  0  0  0  0  0  0  0  0  0  0  0
    3.3869   -0.9487    0.2721 H   0  0  0  0  0  0  0  0  0  0  0  0
    1.3843   -2.1838    1.0915 H   0  0  0  0  0  0  0  0  0  0  0  0
    0.8600    2.1956   -1.2494 H   0  0  0  0  0  0  0  0  0  0  0  0
   -1.8800    0.6984   -1.4402 H   0  0  0  0  0  0  0  0  0  0  0  0
   -1.8167    1.8808   -0.0944 H   0  0  0  0  0  0  0  0  0  0  0  0
   -3.1173   -0.5883    0.1202 H   0  0  0  0  0  0  0  0  0  0  0  0
   -2.4310    0.2770    1.4972 H   0  0  0  0  0  0  0  0  0  0  0  0
   -1.3581   -2.0615    0.1542 H   0  0  0  0  0  0  0  0  0  0  0  0
  1  2  2  0
  2  3  1  0
  3  4  2  0
  4  5  1  0
  5  6  2  0
  5  7  1  0
  7  8  1  0
  8  9  1  0
  6  1  1  0
  9  4  1  0
  1 10  1  0
  2 11  1  0
  3 12  1  0
  6 13  1  0
  7 14  1  0
  7 15  1  0
  8 16  1  0
  8 17  1  0
  9 18  1  0
M  END
>  <coordinate_phase>  (4) 
MMFF94_after_optimization_status_retained

>  <molecule_id>  (4) 
indoline

>  <seed>  (4) 
20260929

>  <conformer_id>  (4) 
3

>  <optimization_status>  (4) 
0

>  <energy_kcal_mol>  (4) 
23.99213173952168

>  <sasa_A2>  (4) 
300.51691806413316

>  <sasa_orientation_sd_A2>  (4) 
2.592503822911153

>  <sasa_orientation_range_A2>  (4) 
13.962790525594926

>  <sasa_first_half_vs_all_abs_delta_A2>  (4) 
0.37596767031214995

>  <mass_weighted_Rg_A>  (4) 
1.9632936286387053

>  <unweighted_Rg_A>  (4) 
2.453708587066498

$$$$
indoline_20260929_4
     RDKit          3D

 18 19  0  0  0  0  0  0  0  0999 V2000
    2.2224   -0.8556   -0.3805 C   0  0  0  0  0  0  0  0  0  0  0  0
    2.4113    0.3687    0.2801 C   0  0  0  0  0  0  0  0  0  0  0  0
    1.3148    1.1418    0.6711 C   0  0  0  0  0  0  0  0  0  0  0  0
    0.0447    0.6615    0.4118 C   0  0  0  0  0  0  0  0  0  0  0  0
   -0.1393   -0.5440   -0.2605 C   0  0  0  0  0  0  0  0  0  0  0  0
    0.9356   -1.3179   -0.6641 C   0  0  0  0  0  0  0  0  0  0  0  0
   -1.5896   -0.7575   -0.5044 C   0  0  0  0  0  0  0  0  0  0  0  0
   -2.1977    0.3334    0.3930 C   0  0  0  0  0  0  0  0  0  0  0  0
   -1.1652    1.3482    0.6993 N   0  0  0  0  0  0  0  0  0  0  0  0
    3.0866   -1.4426   -0.6820 H   0  0  0  0  0  0  0  0  0  0  0  0
    3.4190    0.7198    0.4875 H   0  0  0  0  0  0  0  0  0  0  0  0
    1.4561    2.0891    1.1798 H   0  0  0  0  0  0  0  0  0  0  0  0
    0.7878   -2.2522   -1.1952 H   0  0  0  0  0  0  0  0  0  0  0  0
   -1.8277   -0.5747   -1.5574 H   0  0  0  0  0  0  0  0  0  0  0  0
   -1.9295   -1.7547   -0.2118 H   0  0  0  0  0  0  0  0  0  0  0  0
   -2.5340   -0.1086    1.3397 H   0  0  0  0  0  0  0  0  0  0  0  0
   -3.0720    0.7968   -0.0769 H   0  0  0  0  0  0  0  0  0  0  0  0
   -1.2234    2.1486    0.0705 H   0  0  0  0  0  0  0  0  0  0  0  0
  1  2  2  0
  2  3  1  0
  3  4  2  0
  4  5  1  0
  5  6  2  0
  5  7  1  0
  7  8  1  0
  8  9  1  0
  6  1  1  0
  9  4  1  0
  1 10  1  0
  2 11  1  0
  3 12  1  0
  6 13  1  0
  7 14  1  0
  7 15  1  0
  8 16  1  0
  8 17  1  0
  9 18  1  0
M  END
>  <coordinate_phase>  (5) 
MMFF94_after_optimization_status_retained

>  <molecule_id>  (5) 
indoline

>  <seed>  (5) 
20260929

>  <conformer_id>  (5) 
4

>  <optimization_status>  (5) 
0

>  <energy_kcal_mol>  (5) 
23.992131739032626

>  <sasa_A2>  (5) 
301.3952775795503

>  <sasa_orientation_sd_A2>  (5) 
0.5576029297821351

>  <sasa_orientation_range_A2>  (5) 
2.0615839794521094

>  <sasa_first_half_vs_all_abs_delta_A2>  (5) 
0.2582990041141784

>  <mass_weighted_Rg_A>  (5) 
1.963293557855866

>  <unweighted_Rg_A>  (5) 
2.453708415947291

$$$$
indoline_20260930_5
     RDKit          3D

 18 19  0  0  0  0  0  0  0  0999 V2000
    2.3133   -0.6771   -0.0780 C   0  0  0  0  0  0  0  0  0  0  0  0
    2.3426    0.7260   -0.1186 C   0  0  0  0  0  0  0  0  0  0  0  0
    1.1561    1.4631   -0.0756 C   0  0  0  0  0  0  0  0  0  0  0  0
   -0.0405    0.7789    0.0300 C   0  0  0  0  0  0  0  0  0  0  0  0
   -0.0675   -0.6132    0.0509 C   0  0  0  0  0  0  0  0  0  0  0  0
    1.0975   -1.3597   -0.0011 C   0  0  0  0  0  0  0  0  0  0  0  0
   -1.4783   -1.0802    0.0526 C   0  0  0  0  0  0  0  0  0  0  0  0
   -2.2185    0.2363    0.3429 C   0  0  0  0  0  0  0  0  0  0  0  0
   -1.3287    1.3775    0.0341 N   0  0  0  0  0  0  0  0  0  0  0  0
    3.2455   -1.2354   -0.1171 H   0  0  0  0  0  0  0  0  0  0  0  0
    3.2960    1.2438   -0.1862 H   0  0  0  0  0  0  0  0  0  0  0  0
    1.1740    2.5469   -0.1087 H   0  0  0  0  0  0  0  0  0  0  0  0
    1.0713   -2.4441    0.0068 H   0  0  0  0  0  0  0  0  0  0  0  0
   -1.7493   -1.4714   -0.9335 H   0  0  0  0  0  0  0  0  0  0  0  0
   -1.6783   -1.8320    0.8210 H   0  0  0  0  0  0  0  0  0  0  0  0
   -3.1518    0.3047   -0.2265 H   0  0  0  0  0  0  0  0  0  0  0  0
   -2.4831    0.2873    1.4070 H   0  0  0  0  0  0  0  0  0  0  0  0
   -1.5001    1.7486   -0.9000 H   0  0  0  0  0  0  0  0  0  0  0  0
  1  2  2  0
  2  3  1  0
  3  4  2  0
  4  5  1  0
  5  6  2  0
  5  7  1  0
  7  8  1  0
  8  9  1  0
  6  1  1  0
  9  4  1  0
  1 10  1  0
  2 11  1  0
  3 12  1  0
  6 13  1  0
  7 14  1  0
  7 15  1  0
  8 16  1  0
  8 17  1  0
  9 18  1  0
M  END
>  <coordinate_phase>  (6) 
MMFF94_after_optimization_status_retained

>  <molecule_id>  (6) 
indoline

>  <seed>  (6) 
20260930

>  <conformer_id>  (6) 
5

>  <optimization_status>  (6) 
0

>  <energy_kcal_mol>  (6) 
23.992131738649483

>  <sasa_A2>  (6) 
301.2047887824766

>  <sasa_orientation_sd_A2>  (6) 
1.3702578645189547

>  <sasa_orientation_range_A2>  (6) 
6.404015022642341

>  <sasa_first_half_vs_all_abs_delta_A2>  (6) 
0.12978252750281172

>  <mass_weighted_Rg_A>  (6) 
1.9632936886898729

>  <unweighted_Rg_A>  (6) 
2.453708621279838

$$$$
indoline_20260930_6
     RDKit          3D

 18 19  0  0  0  0  0  0  0  0999 V2000
    2.2676    0.8205    0.0299 C   0  0  0  0  0  0  0  0  0  0  0  0
    2.3837   -0.5753    0.1266 C   0  0  0  0  0  0  0  0  0  0  0  0
    1.2436   -1.3832    0.1517 C   0  0  0  0  0  0  0  0  0  0  0  0
    0.0037   -0.7739    0.1016 C   0  0  0  0  0  0  0  0  0  0  0  0
   -0.1079    0.6094   -0.0134 C   0  0  0  0  0  0  0  0  0  0  0  0
    1.0110    1.4243   -0.0499 C   0  0  0  0  0  0  0  0  0  0  0  0
   -1.5396    0.9791   -0.1617 C   0  0  0  0  0  0  0  0  0  0  0  0
   -2.2209   -0.3520    0.1977 C   0  0  0  0  0  0  0  0  0  0  0  0
   -1.2426   -1.4546    0.0671 N   0  0  0  0  0  0  0  0  0  0  0  0
    3.1649    1.4341    0.0070 H   0  0  0  0  0  0  0  0  0  0  0  0
    3.3686   -1.0321    0.1803 H   0  0  0  0  0  0  0  0  0  0  0  0
    1.3287   -2.4618    0.2243 H   0  0  0  0  0  0  0  0  0  0  0  0
    0.9195    2.5008   -0.1483 H   0  0  0  0  0  0  0  0  0  0  0  0
   -1.7531    1.2598   -1.1983 H   0  0  0  0  0  0  0  0  0  0  0  0
   -1.8452    1.7827    0.5138 H   0  0  0  0  0  0  0  0  0  0  0  0
   -3.0996   -0.5344   -0.4304 H   0  0  0  0  0  0  0  0  0  0  0  0
   -2.5667   -0.3235    1.2391 H   0  0  0  0  0  0  0  0  0  0  0  0
   -1.3158   -1.9199   -0.8371 H   0  0  0  0  0  0  0  0  0  0  0  0
  1  2  2  0
  2  3  1  0
  3  4  2  0
  4  5  1  0
  5  6  2  0
  5  7  1  0
  7  8  1  0
  8  9  1  0
  6  1  1  0
  9  4  1  0
  1 10  1  0
  2 11  1  0
  3 12  1  0
  6 13  1  0
  7 14  1  0
  7 15  1  0
  8 16  1  0
  8 17  1  0
  9 18  1  0
M  END
>  <coordinate_phase>  (7) 
MMFF94_after_optimization_status_retained

>  <molecule_id>  (7) 
indoline

>  <seed>  (7) 
20260930

>  <conformer_id>  (7) 
6

>  <optimization_status>  (7) 
0

>  <energy_kcal_mol>  (7) 
23.99213174618033

>  <sasa_A2>  (7) 
300.9257493151965

>  <sasa_orientation_sd_A2>  (7) 
1.3667765972015875

>  <sasa_orientation_range_A2>  (7) 
6.919801943343202

>  <sasa_first_half_vs_all_abs_delta_A2>  (7) 
0.12458792306603073

>  <mass_weighted_Rg_A>  (7) 
1.9632934604006262

>  <unweighted_Rg_A>  (7) 
2.4537083256474648

$$$$
indoline_20260930_7
     RDKit          3D

 18 19  0  0  0  0  0  0  0  0999 V2000
    2.3077    0.6529   -0.2504 C   0  0  0  0  0  0  0  0  0  0  0  0
    2.3292   -0.7308   -0.0106 C   0  0  0  0  0  0  0  0  0  0  0  0
    1.1429   -1.4312    0.2277 C   0  0  0  0  0  0  0  0  0  0  0  0
   -0.0493   -0.7333    0.1959 C   0  0  0  0  0  0  0  0  0  0  0  0
   -0.0645    0.6444   -0.0217 C   0  0  0  0  0  0  0  0  0  0  0  0
    1.1010    1.3556   -0.2480 C   0  0  0  0  0  0  0  0  0  0  0  0
   -1.4654    1.1382    0.0828 C   0  0  0  0  0  0  0  0  0  0  0  0
   -2.2325   -0.1953    0.0111 C   0  0  0  0  0  0  0  0  0  0  0  0
   -1.3321   -1.2643    0.4797 N   0  0  0  0  0  0  0  0  0  0  0  0
    3.2412    1.1827   -0.4240 H   0  0  0  0  0  0  0  0  0  0  0  0
    3.2788   -1.2598    0.0034 H   0  0  0  0  0  0  0  0  0  0  0  0
    1.1623   -2.4940    0.4405 H   0  0  0  0  0  0  0  0  0  0  0  0
    1.0833    2.4279   -0.4100 H   0  0  0  0  0  0  0  0  0  0  0  0
   -1.6211    1.6315    1.0477 H   0  0  0  0  0  0  0  0  0  0  0  0
   -1.7470    1.8082   -0.7339 H   0  0  0  0  0  0  0  0  0  0  0  0
   -2.5256   -0.4053   -1.0263 H   0  0  0  0  0  0  0  0  0  0  0  0
   -3.1461   -0.1643    0.6135 H   0  0  0  0  0  0  0  0  0  0  0  0
   -1.4628   -2.1631    0.0228 H   0  0  0  0  0  0  0  0  0  0  0  0
  1  2  2  0
  2  3  1  0
  3  4  2  0
  4  5  1  0
  5  6  2  0
  5  7  1  0
  7  8  1  0
  8  9  1  0
  6  1  1  0
  9  4  1  0
  1 10  1  0
  2 11  1  0
  3 12  1  0
  6 13  1  0
  7 14  1  0
  7 15  1  0
  8 16  1  0
  8 17  1  0
  9 18  1  0
M  END
>  <coordinate_phase>  (8) 
MMFF94_after_optimization_status_retained

>  <molecule_id>  (8) 
indoline

>  <seed>  (8) 
20260930

>  <conformer_id>  (8) 
7

>  <optimization_status>  (8) 
0

>  <energy_kcal_mol>  (8) 
22.438266525490853

>  <sasa_A2>  (8) 
300.8951529199212

>  <sasa_orientation_sd_A2>  (8) 
1.0879042956781695

>  <sasa_orientation_range_A2>  (8) 
5.182529314178339

>  <sasa_first_half_vs_all_abs_delta_A2>  (8) 
0.09672433588133345

>  <mass_weighted_Rg_A>  (8) 
1.9619462293881844

>  <unweighted_Rg_A>  (8) 
2.458003624000758

$$$$
