indoline_20260928_0
     RDKit          3D

 18 19  0  0  0  0  0  0  0  0999 V2000
    2.3954   -0.4792    0.0450 C   0  0  0  0  0  0  0  0  0  0  0  0
    2.3185    0.9106   -0.1055 C   0  0  0  0  0  0  0  0  0  0  0  0
    1.0642    1.4779   -0.2006 C   0  0  0  0  0  0  0  0  0  0  0  0
   -0.1001    0.7263   -0.1524 C   0  0  0  0  0  0  0  0  0  0  0  0
   -0.0134   -0.6422   -0.0039 C   0  0  0  0  0  0  0  0  0  0  0  0
    1.2400   -1.2309    0.0935 C   0  0  0  0  0  0  0  0  0  0  0  0
   -1.3694   -1.2096    0.0193 C   0  0  0  0  0  0  0  0  0  0  0  0
   -2.2768   -0.0173    0.2362 C   0  0  0  0  0  0  0  0  0  0  0  0
   -1.4722    1.0966   -0.2297 N   0  0  0  0  0  0  0  0  0  0  0  0
    3.3904   -0.8981    0.1172 H   0  0  0  0  0  0  0  0  0  0  0  0
    3.2241    1.5041   -0.1439 H   0  0  0  0  0  0  0  0  0  0  0  0
    0.9865    2.5404   -0.3161 H   0  0  0  0  0  0  0  0  0  0  0  0
    1.3009   -2.2858    0.2078 H   0  0  0  0  0  0  0  0  0  0  0  0
   -1.6850   -1.7203   -0.8940 H   0  0  0  0  0  0  0  0  0  0  0  0
   -1.5395   -1.8949    0.8838 H   0  0  0  0  0  0  0  0  0  0  0  0
   -2.4345    0.1617    1.3310 H   0  0  0  0  0  0  0  0  0  0  0  0
   -3.2283   -0.0858   -0.3088 H   0  0  0  0  0  0  0  0  0  0  0  0
   -1.8009    2.0464   -0.5790 H   0  0  0  0  0  0  0  0  0  0  0  0
  1  2  2  0
  2  3  1  0
  3  4  2  0
  4  5  1  0
  5  6  2  0
  5  7  1  0
  7  8  1  0
  8  9  1  0
  6  1  1  0
  9  4  1  0
  1 10  1  0
  2 11  1  0
  3 12  1  0
  6 13  1  0
  7 14  1  0
  7 15  1  0
  8 16  1  0
  8 17  1  0
  9 18  1  0
M  END
>  <coordinate_phase>  (1) 
ETKDG_before_MMFF

>  <molecule_id>  (1) 
indoline

>  <seed>  (1) 
20260928

>  <conformer_id>  (1) 
0

$$$$
indoline_20260928_1
     RDKit          3D

 18 19  0  0  0  0  0  0  0  0999 V2000
    2.3052   -0.6666   -0.1432 C   0  0  0  0  0  0  0  0  0  0  0  0
    2.3137    0.7106   -0.2520 C   0  0  0  0  0  0  0  0  0  0  0  0
    1.1394    1.4630   -0.1604 C   0  0  0  0  0  0  0  0  0  0  0  0
   -0.0415    0.7461    0.0470 C   0  0  0  0  0  0  0  0  0  0  0  0
   -0.0550   -0.6280    0.1562 C   0  0  0  0  0  0  0  0  0  0  0  0
    1.1145   -1.3528    0.0630 C   0  0  0  0  0  0  0  0  0  0  0  0
   -1.4800   -1.0465    0.3715 C   0  0  0  0  0  0  0  0  0  0  0  0
   -2.2196    0.1022   -0.2650 C   0  0  0  0  0  0  0  0  0  0  0  0
   -1.3914    1.2262    0.1824 N   0  0  0  0  0  0  0  0  0  0  0  0
    3.2415   -1.2040   -0.2212 H   0  0  0  0  0  0  0  0  0  0  0  0
    3.2327    1.2235   -0.4099 H   0  0  0  0  0  0  0  0  0  0  0  0
    1.1416    2.5425   -0.2451 H   0  0  0  0  0  0  0  0  0  0  0  0
    1.1406   -2.4337    0.1442 H   0  0  0  0  0  0  0  0  0  0  0  0
   -1.7130   -2.0321   -0.0303 H   0  0  0  0  0  0  0  0  0  0  0  0
   -1.6381   -0.9689    1.4852 H   0  0  0  0  0  0  0  0  0  0  0  0
   -2.1396   -0.0108   -1.3622 H   0  0  0  0  0  0  0  0  0  0  0  0
   -3.2499    0.1659    0.1169 H   0  0  0  0  0  0  0  0  0  0  0  0
   -1.7012    2.1634    0.5228 H   0  0  0  0  0  0  0  0  0  0  0  0
  1  2  2  0
  2  3  1  0
  3  4  2  0
  4  5  1  0
  5  6  2  0
  5  7  1  0
  7  8  1  0
  8  9  1  0
  6  1  1  0
  9  4  1  0
  1 10  1  0
  2 11  1  0
  3 12  1  0
  6 13  1  0
  7 14  1  0
  7 15  1  0
  8 16  1  0
  8 17  1  0
  9 18  1  0
M  END
>  <coordinate_phase>  (2) 
ETKDG_before_MMFF

>  <molecule_id>  (2) 
indoline

>  <seed>  (2) 
20260928

>  <conformer_id>  (2) 
1

$$$$
indoline_20260929_2
     RDKit          3D

 18 19  0  0  0  0  0  0  0  0999 V2000
    2.2808    0.8182    0.2724 C   0  0  0  0  0  0  0  0  0  0  0  0
    2.4241   -0.5534    0.2988 C   0  0  0  0  0  0  0  0  0  0  0  0
    1.2927   -1.3320    0.1632 C   0  0  0  0  0  0  0  0  0  0  0  0
    0.0283   -0.7861    0.0026 C   0  0  0  0  0  0  0  0  0  0  0  0
   -0.0722    0.5967   -0.0186 C   0  0  0  0  0  0  0  0  0  0  0  0
    1.0299    1.4234    0.1131 C   0  0  0  0  0  0  0  0  0  0  0  0
   -1.4927    0.9930   -0.1976 C   0  0  0  0  0  0  0  0  0  0  0  0
   -2.2597   -0.3080   -0.2117 C   0  0  0  0  0  0  0  0  0  0  0  0
   -1.2720   -1.3526   -0.1553 N   0  0  0  0  0  0  0  0  0  0  0  0
    3.1532    1.4480    0.3768 H   0  0  0  0  0  0  0  0  0  0  0  0
    3.4169   -0.9649    0.4248 H   0  0  0  0  0  0  0  0  0  0  0  0
    1.3852   -2.4277    0.1816 H   0  0  0  0  0  0  0  0  0  0  0  0
    0.9527    2.5007    0.0967 H   0  0  0  0  0  0  0  0  0  0  0  0
   -1.8908    1.6169    0.6208 H   0  0  0  0  0  0  0  0  0  0  0  0
   -1.6397    1.4766   -1.1953 H   0  0  0  0  0  0  0  0  0  0  0  0
   -2.9928   -0.3563    0.6133 H   0  0  0  0  0  0  0  0  0  0  0  0
   -2.8466   -0.4320   -1.1636 H   0  0  0  0  0  0  0  0  0  0  0  0
   -1.4973   -2.3606   -0.2220 H   0  0  0  0  0  0  0  0  0  0  0  0
  1  2  2  0
  2  3  1  0
  3  4  2  0
  4  5  1  0
  5  6  2  0
  5  7  1  0
  7  8  1  0
  8  9  1  0
  6  1  1  0
  9  4  1  0
  1 10  1  0
  2 11  1  0
  3 12  1  0
  6 13  1  0
  7 14  1  0
  7 15  1  0
  8 16  1  0
  8 17  1  0
  9 18  1  0
M  END
>  <coordinate_phase>  (3) 
ETKDG_before_MMFF

>  <molecule_id>  (3) 
indoline

>  <seed>  (3) 
20260929

>  <conformer_id>  (3) 
2

$$$$
indoline_20260929_3
     RDKit          3D

 18 19  0  0  0  0  0  0  0  0999 V2000
    2.2476    0.8022   -0.3255 C   0  0  0  0  0  0  0  0  0  0  0  0
    2.3870   -0.4972    0.1610 C   0  0  0  0  0  0  0  0  0  0  0  0
    1.2688   -1.2779    0.4065 C   0  0  0  0  0  0  0  0  0  0  0  0
    0.0006   -0.7561    0.1640 C   0  0  0  0  0  0  0  0  0  0  0  0
   -0.1328    0.5307   -0.3176 C   0  0  0  0  0  0  0  0  0  0  0  0
    0.9798    1.3129   -0.5639 C   0  0  0  0  0  0  0  0  0  0  0  0
   -1.5933    0.8148   -0.4796 C   0  0  0  0  0  0  0  0  0  0  0  0
   -2.1649   -0.1256    0.5629 C   0  0  0  0  0  0  0  0  0  0  0  0
   -1.3076   -1.2955    0.3128 N   0  0  0  0  0  0  0  0  0  0  0  0
    3.1528    1.3964   -0.5103 H   0  0  0  0  0  0  0  0  0  0  0  0
    3.3665   -0.9122    0.3527 H   0  0  0  0  0  0  0  0  0  0  0  0
    1.3622   -2.2890    0.7844 H   0  0  0  0  0  0  0  0  0  0  0  0
    0.8958    2.3389   -0.9469 H   0  0  0  0  0  0  0  0  0  0  0  0
   -1.8951    0.3882   -1.4626 H   0  0  0  0  0  0  0  0  0  0  0  0
   -1.8633    1.8615   -0.3524 H   0  0  0  0  0  0  0  0  0  0  0  0
   -3.2259   -0.3365    0.4283 H   0  0  0  0  0  0  0  0  0  0  0  0
   -1.9189    0.3347    1.5341 H   0  0  0  0  0  0  0  0  0  0  0  0
   -1.5592   -2.2904    0.2521 H   0  0  0  0  0  0  0  0  0  0  0  0
  1  2  2  0
  2  3  1  0
  3  4  2  0
  4  5  1  0
  5  6  2  0
  5  7  1  0
  7  8  1  0
  8  9  1  0
  6  1  1  0
  9  4  1  0
  1 10  1  0
  2 11  1  0
  3 12  1  0
  6 13  1  0
  7 14  1  0
  7 15  1  0
  8 16  1  0
  8 17  1  0
  9 18  1  0
M  END
>  <coordinate_phase>  (4) 
ETKDG_before_MMFF

>  <molecule_id>  (4) 
indoline

>  <seed>  (4) 
20260929

>  <conformer_id>  (4) 
3

$$$$
indoline_20260929_4
     RDKit          3D

 18 19  0  0  0  0  0  0  0  0999 V2000
    2.1930   -0.9429   -0.1182 C   0  0  0  0  0  0  0  0  0  0  0  0
    2.4037    0.3449    0.3505 C   0  0  0  0  0  0  0  0  0  0  0  0
    1.3214    1.2161    0.4874 C   0  0  0  0  0  0  0  0  0  0  0  0
    0.0523    0.7499    0.1422 C   0  0  0  0  0  0  0  0  0  0  0  0
   -0.1496   -0.5346   -0.3241 C   0  0  0  0  0  0  0  0  0  0  0  0
    0.9369   -1.4069   -0.4607 C   0  0  0  0  0  0  0  0  0  0  0  0
   -1.6176   -0.7275   -0.6056 C   0  0  0  0  0  0  0  0  0  0  0  0
   -2.1814    0.2885    0.3743 C   0  0  0  0  0  0  0  0  0  0  0  0
   -1.2295    1.3754    0.1662 N   0  0  0  0  0  0  0  0  0  0  0  0
    3.0395   -1.6135   -0.2216 H   0  0  0  0  0  0  0  0  0  0  0  0
    3.3911    0.6552    0.6012 H   0  0  0  0  0  0  0  0  0  0  0  0
    1.4471    2.2322    0.8512 H   0  0  0  0  0  0  0  0  0  0  0  0
    0.7761   -2.4183   -0.8281 H   0  0  0  0  0  0  0  0  0  0  0  0
   -1.8383   -0.3223   -1.6242 H   0  0  0  0  0  0  0  0  0  0  0  0
   -1.9568   -1.7482   -0.4454 H   0  0  0  0  0  0  0  0  0  0  0  0
   -1.9631   -0.1081    1.3897 H   0  0  0  0  0  0  0  0  0  0  0  0
   -3.2172    0.5623    0.2104 H   0  0  0  0  0  0  0  0  0  0  0  0
   -1.4075    2.3977    0.0547 H   0  0  0  0  0  0  0  0  0  0  0  0
  1  2  2  0
  2  3  1  0
  3  4  2  0
  4  5  1  0
  5  6  2  0
  5  7  1  0
  7  8  1  0
  8  9  1  0
  6  1  1  0
  9  4  1  0
  1 10  1  0
  2 11  1  0
  3 12  1  0
  6 13  1  0
  7 14  1  0
  7 15  1  0
  8 16  1  0
  8 17  1  0
  9 18  1  0
M  END
>  <coordinate_phase>  (5) 
ETKDG_before_MMFF

>  <molecule_id>  (5) 
indoline

>  <seed>  (5) 
20260929

>  <conformer_id>  (5) 
4

$$$$
indoline_20260930_5
     RDKit          3D

 18 19  0  0  0  0  0  0  0  0999 V2000
    2.3063   -0.6593    0.1305 C   0  0  0  0  0  0  0  0  0  0  0  0
    2.3571    0.7060   -0.0273 C   0  0  0  0  0  0  0  0  0  0  0  0
    1.1743    1.3982   -0.1957 C   0  0  0  0  0  0  0  0  0  0  0  0
   -0.0409    0.7108   -0.2031 C   0  0  0  0  0  0  0  0  0  0  0  0
   -0.0914   -0.6599   -0.0446 C   0  0  0  0  0  0  0  0  0  0  0  0
    1.1140   -1.3105    0.1204 C   0  0  0  0  0  0  0  0  0  0  0  0
   -1.5227   -1.0876   -0.0986 C   0  0  0  0  0  0  0  0  0  0  0  0
   -2.2029    0.1994    0.3605 C   0  0  0  0  0  0  0  0  0  0  0  0
   -1.3952    1.1777   -0.3573 N   0  0  0  0  0  0  0  0  0  0  0  0
    3.2478   -1.1710    0.2599 H   0  0  0  0  0  0  0  0  0  0  0  0
    3.2869    1.2765   -0.0269 H   0  0  0  0  0  0  0  0  0  0  0  0
    1.1890    2.4822   -0.3228 H   0  0  0  0  0  0  0  0  0  0  0  0
    1.0791   -2.3975    0.2465 H   0  0  0  0  0  0  0  0  0  0  0  0
   -1.8268   -1.3686   -1.1243 H   0  0  0  0  0  0  0  0  0  0  0  0
   -1.7271   -1.8855    0.6435 H   0  0  0  0  0  0  0  0  0  0  0  0
   -3.2658    0.2188    0.0953 H   0  0  0  0  0  0  0  0  0  0  0  0
   -1.9906    0.3383    1.4202 H   0  0  0  0  0  0  0  0  0  0  0  0
   -1.6909    2.0321   -0.8760 H   0  0  0  0  0  0  0  0  0  0  0  0
  1  2  2  0
  2  3  1  0
  3  4  2  0
  4  5  1  0
  5  6  2  0
  5  7  1  0
  7  8  1  0
  8  9  1  0
  6  1  1  0
  9  4  1  0
  1 10  1  0
  2 11  1  0
  3 12  1  0
  6 13  1  0
  7 14  1  0
  7 15  1  0
  8 16  1  0
  8 17  1  0
  9 18  1  0
M  END
>  <coordinate_phase>  (6) 
ETKDG_before_MMFF

>  <molecule_id>  (6) 
indoline

>  <seed>  (6) 
20260930

>  <conformer_id>  (6) 
5

$$$$
indoline_20260930_6
     RDKit          3D

 18 19  0  0  0  0  0  0  0  0999 V2000
    2.2349    0.8201    0.2842 C   0  0  0  0  0  0  0  0  0  0  0  0
    2.3614   -0.5582    0.2058 C   0  0  0  0  0  0  0  0  0  0  0  0
    1.2488   -1.3666   -0.0206 C   0  0  0  0  0  0  0  0  0  0  0  0
    0.0301   -0.7320   -0.1611 C   0  0  0  0  0  0  0  0  0  0  0  0
   -0.1187    0.6397   -0.0866 C   0  0  0  0  0  0  0  0  0  0  0  0
    1.0051    1.4142    0.1392 C   0  0  0  0  0  0  0  0  0  0  0  0
   -1.5775    0.9656   -0.2854 C   0  0  0  0  0  0  0  0  0  0  0  0
   -2.2133   -0.3074    0.2085 C   0  0  0  0  0  0  0  0  0  0  0  0
   -1.2863   -1.2743   -0.3997 N   0  0  0  0  0  0  0  0  0  0  0  0
    3.1149    1.4262    0.4609 H   0  0  0  0  0  0  0  0  0  0  0  0
    3.3516   -1.0214    0.3237 H   0  0  0  0  0  0  0  0  0  0  0  0
    1.3260   -2.4398   -0.0848 H   0  0  0  0  0  0  0  0  0  0  0  0
    0.9281    2.4993    0.2043 H   0  0  0  0  0  0  0  0  0  0  0  0
   -1.7541    1.0592   -1.3752 H   0  0  0  0  0  0  0  0  0  0  0  0
   -1.8903    1.8595    0.2677 H   0  0  0  0  0  0  0  0  0  0  0  0
   -3.2507   -0.4599   -0.0757 H   0  0  0  0  0  0  0  0  0  0  0  0
   -1.9935   -0.3619    1.2927 H   0  0  0  0  0  0  0  0  0  0  0  0
   -1.5164   -2.1622   -0.8979 H   0  0  0  0  0  0  0  0  0  0  0  0
  1  2  2  0
  2  3  1  0
  3  4  2  0
  4  5  1  0
  5  6  2  0
  5  7  1  0
  7  8  1  0
  8  9  1  0
  6  1  1  0
  9  4  1  0
  1 10  1  0
  2 11  1  0
  3 12  1  0
  6 13  1  0
  7 14  1  0
  7 15  1  0
  8 16  1  0
  8 17  1  0
  9 18  1  0
M  END
>  <coordinate_phase>  (7) 
ETKDG_before_MMFF

>  <molecule_id>  (7) 
indoline

>  <seed>  (7) 
20260930

>  <conformer_id>  (7) 
6

$$$$
indoline_20260930_7
     RDKit          3D

 18 19  0  0  0  0  0  0  0  0999 V2000
    2.3046    0.6959   -0.0307 C   0  0  0  0  0  0  0  0  0  0  0  0
    2.3673   -0.6931    0.0076 C   0  0  0  0  0  0  0  0  0  0  0  0
    1.1904   -1.4408    0.0424 C   0  0  0  0  0  0  0  0  0  0  0  0
   -0.0013   -0.7477    0.0369 C   0  0  0  0  0  0  0  0  0  0  0  0
   -0.0451    0.6432   -0.0017 C   0  0  0  0  0  0  0  0  0  0  0  0
    1.1080    1.3820   -0.0359 C   0  0  0  0  0  0  0  0  0  0  0  0
   -1.4639    1.0721    0.0029 C   0  0  0  0  0  0  0  0  0  0  0  0
   -2.2832   -0.1741   -0.0419 C   0  0  0  0  0  0  0  0  0  0  0  0
   -1.3409   -1.2630    0.0671 N   0  0  0  0  0  0  0  0  0  0  0  0
    3.2518    1.2080   -0.0562 H   0  0  0  0  0  0  0  0  0  0  0  0
    3.3207   -1.2273    0.0114 H   0  0  0  0  0  0  0  0  0  0  0  0
    1.2002   -2.5202    0.0726 H   0  0  0  0  0  0  0  0  0  0  0  0
    1.1263    2.4670   -0.0666 H   0  0  0  0  0  0  0  0  0  0  0  0
   -1.6282    1.6350    0.9438 H   0  0  0  0  0  0  0  0  0  0  0  0
   -1.6704    1.7293   -0.8855 H   0  0  0  0  0  0  0  0  0  0  0  0
   -2.8068   -0.3275   -1.0071 H   0  0  0  0  0  0  0  0  0  0  0  0
   -3.0307   -0.1640    0.7862 H   0  0  0  0  0  0  0  0  0  0  0  0
   -1.5987   -2.2747    0.1548 H   0  0  0  0  0  0  0  0  0  0  0  0
  1  2  2  0
  2  3  1  0
  3  4  2  0
  4  5  1  0
  5  6  2  0
  5  7  1  0
  7  8  1  0
  8  9  1  0
  6  1  1  0
  9  4  1  0
  1 10  1  0
  2 11  1  0
  3 12  1  0
  6 13  1  0
  7 14  1  0
  7 15  1  0
  8 16  1  0
  8 17  1  0
  9 18  1  0
M  END
>  <coordinate_phase>  (8) 
ETKDG_before_MMFF

>  <molecule_id>  (8) 
indoline

>  <seed>  (8) 
20260930

>  <conformer_id>  (8) 
7

$$$$
