melatonin_20260928_0
     RDKit          3D

 33 34  0  0  0  0  0  0  0  0999 V2000
    5.4725    1.7542    0.2359 C   0  0  0  0  0  0  0  0  0  0  0  0
    4.3265    0.8280   -0.0414 C   0  0  0  0  0  0  0  0  0  0  0  0
    4.5358   -0.4104    0.0783 O   0  0  0  0  0  0  0  0  0  0  0  0
    3.0593    1.3509   -0.4238 N   0  0  0  0  0  0  0  0  0  0  0  0
    1.9032    0.5292   -0.7062 C   0  0  0  0  0  0  0  0  0  0  0  0
    1.5551   -0.2466    0.5284 C   0  0  0  0  0  0  0  0  0  0  0  0
    0.3708   -1.1384    0.3147 C   0  0  0  0  0  0  0  0  0  0  0  0
    0.4923   -2.5072    0.1428 C   0  0  0  0  0  0  0  0  0  0  0  0
   -0.7487   -3.0047   -0.0229 N   0  0  0  0  0  0  0  0  0  0  0  0
   -1.6342   -1.9935    0.0399 C   0  0  0  0  0  0  0  0  0  0  0  0
   -0.9626   -0.8089    0.2512 C   0  0  0  0  0  0  0  0  0  0  0  0
   -1.6440    0.3839    0.3548 C   0  0  0  0  0  0  0  0  0  0  0  0
   -3.0181    0.3391    0.2384 C   0  0  0  0  0  0  0  0  0  0  0  0
   -3.7117    1.5221    0.3398 O   0  0  0  0  0  0  0  0  0  0  0  0
   -5.0909    1.6960    0.2503 C   0  0  0  0  0  0  0  0  0  0  0  0
   -3.7040   -0.8495    0.0253 C   0  0  0  0  0  0  0  0  0  0  0  0
   -3.0071   -2.0515   -0.0781 C   0  0  0  0  0  0  0  0  0  0  0  0
    6.3354    1.1840    0.6131 H   0  0  0  0  0  0  0  0  0  0  0  0
    5.1850    2.5808    0.9325 H   0  0  0  0  0  0  0  0  0  0  0  0
    5.7605    2.1708   -0.7716 H   0  0  0  0  0  0  0  0  0  0  0  0
    3.0198    2.4130   -0.4891 H   0  0  0  0  0  0  0  0  0  0  0  0
    1.0917    1.2186   -1.0110 H   0  0  0  0  0  0  0  0  0  0  0  0
    2.0679   -0.1255   -1.5883 H   0  0  0  0  0  0  0  0  0  0  0  0
    2.4254   -0.8195    0.8943 H   0  0  0  0  0  0  0  0  0  0  0  0
    1.3173    0.5130    1.3293 H   0  0  0  0  0  0  0  0  0  0  0  0
    1.4291   -3.0692    0.1439 H   0  0  0  0  0  0  0  0  0  0  0  0
   -0.9355   -4.0375   -0.1747 H   0  0  0  0  0  0  0  0  0  0  0  0
   -1.0800    1.2894    0.5204 H   0  0  0  0  0  0  0  0  0  0  0  0
   -5.6906    0.7938    0.5130 H   0  0  0  0  0  0  0  0  0  0  0  0
   -5.3834    1.9332   -0.7976 H   0  0  0  0  0  0  0  0  0  0  0  0
   -5.4403    2.4763    0.9619 H   0  0  0  0  0  0  0  0  0  0  0  0
   -4.7689   -0.9183   -0.0716 H   0  0  0  0  0  0  0  0  0  0  0  0
   -3.5278   -2.9957   -0.2451 H   0  0  0  0  0  0  0  0  0  0  0  0
  1  2  1  0
  2  3  2  0
  2  4  1  0
  4  5  1  0
  5  6  1  0
  6  7  1  0
  7  8  2  0
  8  9  1  0
  9 10  1  0
 10 11  1  0
 11 12  2  0
 12 13  1  0
 13 14  1  0
 14 15  1  0
 13 16  2  0
 16 17  1  0
 11  7  1  0
 17 10  2  0
  1 18  1  0
  1 19  1  0
  1 20  1  0
  4 21  1  0
  5 22  1  0
  5 23  1  0
  6 24  1  0
  6 25  1  0
  8 26  1  0
  9 27  1  0
 12 28  1  0
 15 29  1  0
 15 30  1  0
 15 31  1  0
 16 32  1  0
 17 33  1  0
M  END
>  <coordinate_phase>  (1) 
ETKDG_before_MMFF

>  <molecule_id>  (1) 
melatonin

>  <seed>  (1) 
20260928

>  <conformer_id>  (1) 
0

$$$$
melatonin_20260928_1
     RDKit          3D

 33 34  0  0  0  0  0  0  0  0999 V2000
    5.2478    1.2513   -1.4281 C   0  0  0  0  0  0  0  0  0  0  0  0
    4.0210    0.4619   -1.1296 C   0  0  0  0  0  0  0  0  0  0  0  0
    3.7328   -0.4377   -1.9921 O   0  0  0  0  0  0  0  0  0  0  0  0
    3.2193    0.6814    0.0239 N   0  0  0  0  0  0  0  0  0  0  0  0
    2.0480   -0.1620    0.1814 C   0  0  0  0  0  0  0  0  0  0  0  0
    1.3305    0.2017    1.4732 C   0  0  0  0  0  0  0  0  0  0  0  0
    0.1427   -0.6823    1.5819 C   0  0  0  0  0  0  0  0  0  0  0  0
   -0.0149   -1.8066    2.3622 C   0  0  0  0  0  0  0  0  0  0  0  0
   -1.2590   -2.2926    2.1370 N   0  0  0  0  0  0  0  0  0  0  0  0
   -1.9060   -1.5205    1.2389 C   0  0  0  0  0  0  0  0  0  0  0  0
   -1.0385   -0.5079    0.8836 C   0  0  0  0  0  0  0  0  0  0  0  0
   -1.4132    0.4755   -0.0390 C   0  0  0  0  0  0  0  0  0  0  0  0
   -2.6741    0.4664   -0.6300 C   0  0  0  0  0  0  0  0  0  0  0  0
   -3.0446    1.4461   -1.5465 O   0  0  0  0  0  0  0  0  0  0  0  0
   -4.3488    1.4235   -2.1369 C   0  0  0  0  0  0  0  0  0  0  0  0
   -3.5497   -0.5628   -0.2661 C   0  0  0  0  0  0  0  0  0  0  0  0
   -3.1562   -1.5367    0.6582 C   0  0  0  0  0  0  0  0  0  0  0  0
    5.1233    2.2693   -1.0584 H   0  0  0  0  0  0  0  0  0  0  0  0
    6.0838    0.7752   -0.8930 H   0  0  0  0  0  0  0  0  0  0  0  0
    5.4313    1.2871   -2.5337 H   0  0  0  0  0  0  0  0  0  0  0  0
    3.4791    1.4308    0.7265 H   0  0  0  0  0  0  0  0  0  0  0  0
    2.3567   -1.2426    0.2563 H   0  0  0  0  0  0  0  0  0  0  0  0
    1.3684   -0.0389   -0.6866 H   0  0  0  0  0  0  0  0  0  0  0  0
    0.9724    1.2443    1.3266 H   0  0  0  0  0  0  0  0  0  0  0  0
    1.9750    0.1545    2.3532 H   0  0  0  0  0  0  0  0  0  0  0  0
    0.7630   -2.1714    3.0146 H   0  0  0  0  0  0  0  0  0  0  0  0
   -1.6707   -3.1568    2.5976 H   0  0  0  0  0  0  0  0  0  0  0  0
   -0.7449    1.2760   -0.3285 H   0  0  0  0  0  0  0  0  0  0  0  0
   -4.4242    0.6370   -2.8982 H   0  0  0  0  0  0  0  0  0  0  0  0
   -4.5621    2.4088   -2.6017 H   0  0  0  0  0  0  0  0  0  0  0  0
   -5.1225    1.2008   -1.3422 H   0  0  0  0  0  0  0  0  0  0  0  0
   -4.5502   -0.6344   -0.6873 H   0  0  0  0  0  0  0  0  0  0  0  0
   -3.8154   -2.3383    0.9556 H   0  0  0  0  0  0  0  0  0  0  0  0
  1  2  1  0
  2  3  2  0
  2  4  1  0
  4  5  1  0
  5  6  1  0
  6  7  1  0
  7  8  2  0
  8  9  1  0
  9 10  1  0
 10 11  1  0
 11 12  2  0
 12 13  1  0
 13 14  1  0
 14 15  1  0
 13 16  2  0
 16 17  1  0
 11  7  1  0
 17 10  2  0
  1 18  1  0
  1 19  1  0
  1 20  1  0
  4 21  1  0
  5 22  1  0
  5 23  1  0
  6 24  1  0
  6 25  1  0
  8 26  1  0
  9 27  1  0
 12 28  1  0
 15 29  1  0
 15 30  1  0
 15 31  1  0
 16 32  1  0
 17 33  1  0
M  END
>  <coordinate_phase>  (2) 
ETKDG_before_MMFF

>  <molecule_id>  (2) 
melatonin

>  <seed>  (2) 
20260928

>  <conformer_id>  (2) 
1

$$$$
melatonin_20260928_2
     RDKit          3D

 33 34  0  0  0  0  0  0  0  0999 V2000
    4.5460    2.0576    0.3250 C   0  0  0  0  0  0  0  0  0  0  0  0
    3.4205    1.0834    0.6130 C   0  0  0  0  0  0  0  0  0  0  0  0
    2.5949    1.3594    1.4965 O   0  0  0  0  0  0  0  0  0  0  0  0
    3.4063   -0.0833   -0.1671 N   0  0  0  0  0  0  0  0  0  0  0  0
    2.4030   -1.1423   -0.0634 C   0  0  0  0  0  0  0  0  0  0  0  0
    1.0973   -0.4904   -0.4113 C   0  0  0  0  0  0  0  0  0  0  0  0
   -0.0763   -1.3524   -0.4146 C   0  0  0  0  0  0  0  0  0  0  0  0
   -0.2153   -2.7326   -0.5827 C   0  0  0  0  0  0  0  0  0  0  0  0
   -1.5077   -3.0800   -0.5287 N   0  0  0  0  0  0  0  0  0  0  0  0
   -2.2589   -1.9860   -0.3254 C   0  0  0  0  0  0  0  0  0  0  0  0
   -1.4027   -0.9283   -0.2537 C   0  0  0  0  0  0  0  0  0  0  0  0
   -1.8705    0.3134   -0.0213 C   0  0  0  0  0  0  0  0  0  0  0  0
   -3.2357    0.6152    0.1608 C   0  0  0  0  0  0  0  0  0  0  0  0
   -3.6255    1.9582    0.4010 O   0  0  0  0  0  0  0  0  0  0  0  0
   -2.5380    2.8632    0.4297 C   0  0  0  0  0  0  0  0  0  0  0  0
   -4.0877   -0.4309    0.0886 C   0  0  0  0  0  0  0  0  0  0  0  0
   -3.6181   -1.7063   -0.1495 C   0  0  0  0  0  0  0  0  0  0  0  0
    4.0773    2.7634   -0.4252 H   0  0  0  0  0  0  0  0  0  0  0  0
    4.7055    2.6625    1.2251 H   0  0  0  0  0  0  0  0  0  0  0  0
    5.4387    1.5671   -0.0680 H   0  0  0  0  0  0  0  0  0  0  0  0
    4.1759   -0.2514   -0.8768 H   0  0  0  0  0  0  0  0  0  0  0  0
    2.3953   -1.6192    0.9413 H   0  0  0  0  0  0  0  0  0  0  0  0
    2.6147   -1.9370   -0.7760 H   0  0  0  0  0  0  0  0  0  0  0  0
    0.8835    0.3290    0.3684 H   0  0  0  0  0  0  0  0  0  0  0  0
    1.1982    0.0553   -1.3531 H   0  0  0  0  0  0  0  0  0  0  0  0
    0.6645   -3.3955   -0.7383 H   0  0  0  0  0  0  0  0  0  0  0  0
   -1.8987   -4.0700   -0.6210 H   0  0  0  0  0  0  0  0  0  0  0  0
   -1.1480    1.1281    0.0278 H   0  0  0  0  0  0  0  0  0  0  0  0
   -1.9899    2.7613   -0.5187 H   0  0  0  0  0  0  0  0  0  0  0  0
   -1.8152    2.5860    1.2381 H   0  0  0  0  0  0  0  0  0  0  0  0
   -2.8688    3.8759    0.5131 H   0  0  0  0  0  0  0  0  0  0  0  0
   -5.1419   -0.2709    0.2173 H   0  0  0  0  0  0  0  0  0  0  0  0
   -4.3226   -2.5026   -0.2154 H   0  0  0  0  0  0  0  0  0  0  0  0
  1  2  1  0
  2  3  2  0
  2  4  1  0
  4  5  1  0
  5  6  1  0
  6  7  1  0
  7  8  2  0
  8  9  1  0
  9 10  1  0
 10 11  1  0
 11 12  2  0
 12 13  1  0
 13 14  1  0
 14 15  1  0
 13 16  2  0
 16 17  1  0
 11  7  1  0
 17 10  2  0
  1 18  1  0
  1 19  1  0
  1 20  1  0
  4 21  1  0
  5 22  1  0
  5 23  1  0
  6 24  1  0
  6 25  1  0
  8 26  1  0
  9 27  1  0
 12 28  1  0
 15 29  1  0
 15 30  1  0
 15 31  1  0
 16 32  1  0
 17 33  1  0
M  END
>  <coordinate_phase>  (3) 
ETKDG_before_MMFF

>  <molecule_id>  (3) 
melatonin

>  <seed>  (3) 
20260928

>  <conformer_id>  (3) 
2

$$$$
melatonin_20260928_3
     RDKit          3D

 33 34  0  0  0  0  0  0  0  0999 V2000
   -5.2597    1.8546   -0.2128 C   0  0  0  0  0  0  0  0  0  0  0  0
   -4.2402    0.7494   -0.1414 C   0  0  0  0  0  0  0  0  0  0  0  0
   -4.5046   -0.4231   -0.5004 O   0  0  0  0  0  0  0  0  0  0  0  0
   -2.9518    1.0804    0.3525 N   0  0  0  0  0  0  0  0  0  0  0  0
   -1.8656    0.1564    0.4879 C   0  0  0  0  0  0  0  0  0  0  0  0
   -1.4618   -0.4753   -0.8420 C   0  0  0  0  0  0  0  0  0  0  0  0
   -0.3201   -1.3993   -0.5067 C   0  0  0  0  0  0  0  0  0  0  0  0
   -0.3429   -2.7741   -0.3969 C   0  0  0  0  0  0  0  0  0  0  0  0
    0.9173   -3.1281   -0.0793 N   0  0  0  0  0  0  0  0  0  0  0  0
    1.7101   -2.0440    0.0109 C   0  0  0  0  0  0  0  0  0  0  0  0
    0.9567   -0.9179   -0.2554 C   0  0  0  0  0  0  0  0  0  0  0  0
    1.5063    0.3628   -0.2374 C   0  0  0  0  0  0  0  0  0  0  0  0
    2.8473    0.5530    0.0526 C   0  0  0  0  0  0  0  0  0  0  0  0
    3.3142    1.8463    0.0505 O   0  0  0  0  0  0  0  0  0  0  0  0
    4.6706    2.1857    0.3320 C   0  0  0  0  0  0  0  0  0  0  0  0
    3.5959   -0.5582    0.3167 C   0  0  0  0  0  0  0  0  0  0  0  0
    3.0566   -1.8337    0.3006 C   0  0  0  0  0  0  0  0  0  0  0  0
   -5.9949    1.6351   -1.0096 H   0  0  0  0  0  0  0  0  0  0  0  0
   -4.7660    2.8335   -0.3081 H   0  0  0  0  0  0  0  0  0  0  0  0
   -5.8529    1.7988    0.7455 H   0  0  0  0  0  0  0  0  0  0  0  0
   -2.7686    2.0795    0.6460 H   0  0  0  0  0  0  0  0  0  0  0  0
   -0.9739    0.6060    0.9325 H   0  0  0  0  0  0  0  0  0  0  0  0
   -2.1153   -0.7146    1.1510 H   0  0  0  0  0  0  0  0  0  0  0  0
   -1.0658    0.2835   -1.5489 H   0  0  0  0  0  0  0  0  0  0  0  0
   -2.2850   -1.0339   -1.3094 H   0  0  0  0  0  0  0  0  0  0  0  0
   -1.2071   -3.4156   -0.5418 H   0  0  0  0  0  0  0  0  0  0  0  0
    1.2387   -4.1147    0.0770 H   0  0  0  0  0  0  0  0  0  0  0  0
    0.8758    1.2379   -0.4555 H   0  0  0  0  0  0  0  0  0  0  0  0
    4.8218    3.2708    0.3564 H   0  0  0  0  0  0  0  0  0  0  0  0
    4.8706    1.7480    1.3416 H   0  0  0  0  0  0  0  0  0  0  0  0
    5.2870    1.6764   -0.4319 H   0  0  0  0  0  0  0  0  0  0  0  0
    4.6432   -0.4130    0.5432 H   0  0  0  0  0  0  0  0  0  0  0  0
    3.6640   -2.7126    0.5131 H   0  0  0  0  0  0  0  0  0  0  0  0
  1  2  1  0
  2  3  2  0
  2  4  1  0
  4  5  1  0
  5  6  1  0
  6  7  1  0
  7  8  2  0
  8  9  1  0
  9 10  1  0
 10 11  1  0
 11 12  2  0
 12 13  1  0
 13 14  1  0
 14 15  1  0
 13 16  2  0
 16 17  1  0
 11  7  1  0
 17 10  2  0
  1 18  1  0
  1 19  1  0
  1 20  1  0
  4 21  1  0
  5 22  1  0
  5 23  1  0
  6 24  1  0
  6 25  1  0
  8 26  1  0
  9 27  1  0
 12 28  1  0
 15 29  1  0
 15 30  1  0
 15 31  1  0
 16 32  1  0
 17 33  1  0
M  END
>  <coordinate_phase>  (4) 
ETKDG_before_MMFF

>  <molecule_id>  (4) 
melatonin

>  <seed>  (4) 
20260928

>  <conformer_id>  (4) 
3

$$$$
melatonin_20260928_4
     RDKit          3D

 33 34  0  0  0  0  0  0  0  0999 V2000
    3.7746    1.8787   -0.8750 C   0  0  0  0  0  0  0  0  0  0  0  0
    3.6645    0.5156   -0.3499 C   0  0  0  0  0  0  0  0  0  0  0  0
    4.6452   -0.2887   -0.3919 O   0  0  0  0  0  0  0  0  0  0  0  0
    2.4472   -0.0030    0.2449 N   0  0  0  0  0  0  0  0  0  0  0  0
    2.4948   -1.3465    0.7102 C   0  0  0  0  0  0  0  0  0  0  0  0
    1.2268   -1.8363    1.2997 C   0  0  0  0  0  0  0  0  0  0  0  0
    0.0532   -1.8434    0.4312 C   0  0  0  0  0  0  0  0  0  0  0  0
   -0.2981   -2.9398   -0.3741 C   0  0  0  0  0  0  0  0  0  0  0  0
   -1.3808   -2.6387   -1.1027 N   0  0  0  0  0  0  0  0  0  0  0  0
   -1.7723   -1.3862   -0.8201 C   0  0  0  0  0  0  0  0  0  0  0  0
   -0.8935   -0.8949    0.1227 C   0  0  0  0  0  0  0  0  0  0  0  0
   -1.0977    0.3756    0.5951 C   0  0  0  0  0  0  0  0  0  0  0  0
   -2.1493    1.1120    0.1251 C   0  0  0  0  0  0  0  0  0  0  0  0
   -2.3667    2.3995    0.5948 O   0  0  0  0  0  0  0  0  0  0  0  0
   -3.4397    3.2031    0.1444 C   0  0  0  0  0  0  0  0  0  0  0  0
   -3.0194    0.6075   -0.8201 C   0  0  0  0  0  0  0  0  0  0  0  0
   -2.8390   -0.6732   -1.3150 C   0  0  0  0  0  0  0  0  0  0  0  0
    4.0912    2.5501   -0.0462 H   0  0  0  0  0  0  0  0  0  0  0  0
    2.7662    2.2199   -1.2537 H   0  0  0  0  0  0  0  0  0  0  0  0
    4.4597    1.9011   -1.7485 H   0  0  0  0  0  0  0  0  0  0  0  0
    1.6673    0.6656    0.2712 H   0  0  0  0  0  0  0  0  0  0  0  0
    2.8518   -1.9839   -0.1460 H   0  0  0  0  0  0  0  0  0  0  0  0
    3.3375   -1.4954    1.4670 H   0  0  0  0  0  0  0  0  0  0  0  0
    1.0156   -1.2119    2.2346 H   0  0  0  0  0  0  0  0  0  0  0  0
    1.4056   -2.9007    1.6497 H   0  0  0  0  0  0  0  0  0  0  0  0
    0.2166   -3.8967   -0.4150 H   0  0  0  0  0  0  0  0  0  0  0  0
   -1.8323   -3.3019   -1.7827 H   0  0  0  0  0  0  0  0  0  0  0  0
   -0.4135    0.7670    1.3473 H   0  0  0  0  0  0  0  0  0  0  0  0
   -3.4094    3.4286   -0.9237 H   0  0  0  0  0  0  0  0  0  0  0  0
   -4.4248    2.7373    0.3649 H   0  0  0  0  0  0  0  0  0  0  0  0
   -3.4262    4.1529    0.7145 H   0  0  0  0  0  0  0  0  0  0  0  0
   -3.8435    1.2149   -1.1757 H   0  0  0  0  0  0  0  0  0  0  0  0
   -3.5114   -1.0882   -2.0585 H   0  0  0  0  0  0  0  0  0  0  0  0
  1  2  1  0
  2  3  2  0
  2  4  1  0
  4  5  1  0
  5  6  1  0
  6  7  1  0
  7  8  2  0
  8  9  1  0
  9 10  1  0
 10 11  1  0
 11 12  2  0
 12 13  1  0
 13 14  1  0
 14 15  1  0
 13 16  2  0
 16 17  1  0
 11  7  1  0
 17 10  2  0
  1 18  1  0
  1 19  1  0
  1 20  1  0
  4 21  1  0
  5 22  1  0
  5 23  1  0
  6 24  1  0
  6 25  1  0
  8 26  1  0
  9 27  1  0
 12 28  1  0
 15 29  1  0
 15 30  1  0
 15 31  1  0
 16 32  1  0
 17 33  1  0
M  END
>  <coordinate_phase>  (5) 
ETKDG_before_MMFF

>  <molecule_id>  (5) 
melatonin

>  <seed>  (5) 
20260928

>  <conformer_id>  (5) 
4

$$$$
melatonin_20260928_5
     RDKit          3D

 33 34  0  0  0  0  0  0  0  0999 V2000
    5.0918    1.6417   -0.5395 C   0  0  0  0  0  0  0  0  0  0  0  0
    4.0225    0.6023   -0.3306 C   0  0  0  0  0  0  0  0  0  0  0  0
    4.2853   -0.3551    0.4020 O   0  0  0  0  0  0  0  0  0  0  0  0
    2.7809    0.7814   -0.9851 N   0  0  0  0  0  0  0  0  0  0  0  0
    1.6654   -0.1519   -0.8618 C   0  0  0  0  0  0  0  0  0  0  0  0
    1.2795   -0.1908    0.5988 C   0  0  0  0  0  0  0  0  0  0  0  0
    0.1273   -1.1437    0.7378 C   0  0  0  0  0  0  0  0  0  0  0  0
    0.1742   -2.4426    1.2010 C   0  0  0  0  0  0  0  0  0  0  0  0
   -1.0770   -2.9543    1.1618 N   0  0  0  0  0  0  0  0  0  0  0  0
   -1.9271   -2.0141    0.6848 C   0  0  0  0  0  0  0  0  0  0  0  0
   -1.2000   -0.8549    0.4054 C   0  0  0  0  0  0  0  0  0  0  0  0
   -1.8586    0.2502   -0.0923 C   0  0  0  0  0  0  0  0  0  0  0  0
   -3.2137    0.2250   -0.3160 C   0  0  0  0  0  0  0  0  0  0  0  0
   -3.9534    1.2799   -0.8086 O   0  0  0  0  0  0  0  0  0  0  0  0
   -3.3976    2.5309   -1.1461 C   0  0  0  0  0  0  0  0  0  0  0  0
   -3.9188   -0.9417   -0.0306 C   0  0  0  0  0  0  0  0  0  0  0  0
   -3.2969   -2.0677    0.4680 C   0  0  0  0  0  0  0  0  0  0  0  0
    4.8460    2.5834   -0.0049 H   0  0  0  0  0  0  0  0  0  0  0  0
    6.0621    1.2865   -0.1599 H   0  0  0  0  0  0  0  0  0  0  0  0
    5.0782    1.8623   -1.6341 H   0  0  0  0  0  0  0  0  0  0  0  0
    2.6710    1.6406   -1.5908 H   0  0  0  0  0  0  0  0  0  0  0  0
    2.0167   -1.1534   -1.2161 H   0  0  0  0  0  0  0  0  0  0  0  0
    0.8239    0.2220   -1.4723 H   0  0  0  0  0  0  0  0  0  0  0  0
    2.1300   -0.4904    1.2095 H   0  0  0  0  0  0  0  0  0  0  0  0
    0.9651    0.8389    0.8781 H   0  0  0  0  0  0  0  0  0  0  0  0
    1.0894   -2.9065    1.5244 H   0  0  0  0  0  0  0  0  0  0  0  0
   -1.2756   -3.9313    1.4677 H   0  0  0  0  0  0  0  0  0  0  0  0
   -1.2992    1.1512   -0.3059 H   0  0  0  0  0  0  0  0  0  0  0  0
   -2.3280    2.5160   -1.3867 H   0  0  0  0  0  0  0  0  0  0  0  0
   -3.9579    2.9015   -2.0530 H   0  0  0  0  0  0  0  0  0  0  0  0
   -3.5346    3.2491   -0.2811 H   0  0  0  0  0  0  0  0  0  0  0  0
   -4.9824   -1.0010   -0.1953 H   0  0  0  0  0  0  0  0  0  0  0  0
   -3.8885   -2.9637    0.6766 H   0  0  0  0  0  0  0  0  0  0  0  0
  1  2  1  0
  2  3  2  0
  2  4  1  0
  4  5  1  0
  5  6  1  0
  6  7  1  0
  7  8  2  0
  8  9  1  0
  9 10  1  0
 10 11  1  0
 11 12  2  0
 12 13  1  0
 13 14  1  0
 14 15  1  0
 13 16  2  0
 16 17  1  0
 11  7  1  0
 17 10  2  0
  1 18  1  0
  1 19  1  0
  1 20  1  0
  4 21  1  0
  5 22  1  0
  5 23  1  0
  6 24  1  0
  6 25  1  0
  8 26  1  0
  9 27  1  0
 12 28  1  0
 15 29  1  0
 15 30  1  0
 15 31  1  0
 16 32  1  0
 17 33  1  0
M  END
>  <coordinate_phase>  (6) 
ETKDG_before_MMFF

>  <molecule_id>  (6) 
melatonin

>  <seed>  (6) 
20260928

>  <conformer_id>  (6) 
5

$$$$
melatonin_20260928_6
     RDKit          3D

 33 34  0  0  0  0  0  0  0  0999 V2000
    5.3566   -0.1261    1.3606 C   0  0  0  0  0  0  0  0  0  0  0  0
    4.5719   -0.3122    0.1202 C   0  0  0  0  0  0  0  0  0  0  0  0
    5.1679   -0.2992   -0.9879 O   0  0  0  0  0  0  0  0  0  0  0  0
    3.1716   -0.5065    0.1051 N   0  0  0  0  0  0  0  0  0  0  0  0
    2.5337   -0.6754   -1.1854 C   0  0  0  0  0  0  0  0  0  0  0  0
    1.0611   -0.8701   -1.0459 C   0  0  0  0  0  0  0  0  0  0  0  0
    0.3551    0.2416   -0.3972 C   0  0  0  0  0  0  0  0  0  0  0  0
    0.8532    1.4240    0.0948 C   0  0  0  0  0  0  0  0  0  0  0  0
   -0.1704    2.1349    0.6003 N   0  0  0  0  0  0  0  0  0  0  0  0
   -1.3307    1.4384    0.4479 C   0  0  0  0  0  0  0  0  0  0  0  0
   -1.0200    0.2437   -0.1782 C   0  0  0  0  0  0  0  0  0  0  0  0
   -2.0247   -0.6682   -0.4592 C   0  0  0  0  0  0  0  0  0  0  0  0
   -3.3448   -0.3708   -0.1064 C   0  0  0  0  0  0  0  0  0  0  0  0
   -4.3114   -1.2976   -0.4006 O   0  0  0  0  0  0  0  0  0  0  0  0
   -5.6759   -1.1714   -0.1234 C   0  0  0  0  0  0  0  0  0  0  0  0
   -3.6685    0.8139    0.5170 C   0  0  0  0  0  0  0  0  0  0  0  0
   -2.6473    1.7135    0.7894 C   0  0  0  0  0  0  0  0  0  0  0  0
    5.5567   -1.0595    1.8978 H   0  0  0  0  0  0  0  0  0  0  0  0
    6.3359    0.3571    1.1116 H   0  0  0  0  0  0  0  0  0  0  0  0
    4.8602    0.6014    2.0520 H   0  0  0  0  0  0  0  0  0  0  0  0
    2.6386   -0.5232    1.0148 H   0  0  0  0  0  0  0  0  0  0  0  0
    2.9389   -1.6483   -1.5812 H   0  0  0  0  0  0  0  0  0  0  0  0
    2.8170    0.0899   -1.9270 H   0  0  0  0  0  0  0  0  0  0  0  0
    0.6036   -1.0801   -2.0177 H   0  0  0  0  0  0  0  0  0  0  0  0
    0.9286   -1.7982   -0.4154 H   0  0  0  0  0  0  0  0  0  0  0  0
    1.9072    1.6768    0.0497 H   0  0  0  0  0  0  0  0  0  0  0  0
   -0.0480    3.0768    1.0357 H   0  0  0  0  0  0  0  0  0  0  0  0
   -1.8116   -1.6090   -0.9473 H   0  0  0  0  0  0  0  0  0  0  0  0
   -6.2223   -1.8400   -0.8360 H   0  0  0  0  0  0  0  0  0  0  0  0
   -5.9004   -1.5766    0.8787 H   0  0  0  0  0  0  0  0  0  0  0  0
   -5.9525   -0.1109   -0.2550 H   0  0  0  0  0  0  0  0  0  0  0  0
   -4.6723    1.0773    0.8033 H   0  0  0  0  0  0  0  0  0  0  0  0
   -2.8569    2.6540    1.2768 H   0  0  0  0  0  0  0  0  0  0  0  0
  1  2  1  0
  2  3  2  0
  2  4  1  0
  4  5  1  0
  5  6  1  0
  6  7  1  0
  7  8  2  0
  8  9  1  0
  9 10  1  0
 10 11  1  0
 11 12  2  0
 12 13  1  0
 13 14  1  0
 14 15  1  0
 13 16  2  0
 16 17  1  0
 11  7  1  0
 17 10  2  0
  1 18  1  0
  1 19  1  0
  1 20  1  0
  4 21  1  0
  5 22  1  0
  5 23  1  0
  6 24  1  0
  6 25  1  0
  8 26  1  0
  9 27  1  0
 12 28  1  0
 15 29  1  0
 15 30  1  0
 15 31  1  0
 16 32  1  0
 17 33  1  0
M  END
>  <coordinate_phase>  (7) 
ETKDG_before_MMFF

>  <molecule_id>  (7) 
melatonin

>  <seed>  (7) 
20260928

>  <conformer_id>  (7) 
6

$$$$
melatonin_20260928_7
     RDKit          3D

 33 34  0  0  0  0  0  0  0  0999 V2000
   -5.6774    0.7418   -0.1620 C   0  0  0  0  0  0  0  0  0  0  0  0
   -4.6475   -0.2901   -0.5767 C   0  0  0  0  0  0  0  0  0  0  0  0
   -4.8716   -1.1395   -1.4770 O   0  0  0  0  0  0  0  0  0  0  0  0
   -3.3962   -0.2580    0.0975 N   0  0  0  0  0  0  0  0  0  0  0  0
   -2.3001   -1.1869   -0.1896 C   0  0  0  0  0  0  0  0  0  0  0  0
   -1.1298   -0.9332    0.6900 C   0  0  0  0  0  0  0  0  0  0  0  0
   -0.3376    0.2686    0.5508 C   0  0  0  0  0  0  0  0  0  0  0  0
   -0.6326    1.6130    0.5519 C   0  0  0  0  0  0  0  0  0  0  0  0
    0.4640    2.3721    0.3334 N   0  0  0  0  0  0  0  0  0  0  0  0
    1.5038    1.5569    0.1797 C   0  0  0  0  0  0  0  0  0  0  0  0
    1.0618    0.2753    0.3068 C   0  0  0  0  0  0  0  0  0  0  0  0
    1.9419   -0.7637    0.2480 C   0  0  0  0  0  0  0  0  0  0  0  0
    3.2933   -0.5910    0.0628 C   0  0  0  0  0  0  0  0  0  0  0  0
    4.1029   -1.7483    0.0217 O   0  0  0  0  0  0  0  0  0  0  0  0
    5.4786   -1.6421   -0.1542 C   0  0  0  0  0  0  0  0  0  0  0  0
    3.7808    0.6819   -0.0722 C   0  0  0  0  0  0  0  0  0  0  0  0
    2.8762    1.7293   -0.0113 C   0  0  0  0  0  0  0  0  0  0  0  0
   -5.8395    0.7306    0.9329 H   0  0  0  0  0  0  0  0  0  0  0  0
   -5.4499    1.7422   -0.5314 H   0  0  0  0  0  0  0  0  0  0  0  0
   -6.6834    0.4616   -0.6411 H   0  0  0  0  0  0  0  0  0  0  0  0
   -3.2758    0.4610    0.8412 H   0  0  0  0  0  0  0  0  0  0  0  0
   -2.0299   -1.1796   -1.2640 H   0  0  0  0  0  0  0  0  0  0  0  0
   -2.6722   -2.2005    0.0731 H   0  0  0  0  0  0  0  0  0  0  0  0
   -1.3648   -1.1750    1.7878 H   0  0  0  0  0  0  0  0  0  0  0  0
   -0.4226   -1.8281    0.4591 H   0  0  0  0  0  0  0  0  0  0  0  0
   -1.5974    2.0679    0.7041 H   0  0  0  0  0  0  0  0  0  0  0  0
    0.5180    3.4300    0.2782 H   0  0  0  0  0  0  0  0  0  0  0  0
    1.5655   -1.7974    0.3403 H   0  0  0  0  0  0  0  0  0  0  0  0
    5.9341   -2.6266    0.1443 H   0  0  0  0  0  0  0  0  0  0  0  0
    5.7137   -1.3994   -1.1852 H   0  0  0  0  0  0  0  0  0  0  0  0
    5.9328   -0.9167    0.5772 H   0  0  0  0  0  0  0  0  0  0  0  0
    4.8449    0.8275   -0.2163 H   0  0  0  0  0  0  0  0  0  0  0  0
    3.3160    2.7164   -0.1216 H   0  0  0  0  0  0  0  0  0  0  0  0
  1  2  1  0
  2  3  2  0
  2  4  1  0
  4  5  1  0
  5  6  1  0
  6  7  1  0
  7  8  2  0
  8  9  1  0
  9 10  1  0
 10 11  1  0
 11 12  2  0
 12 13  1  0
 13 14  1  0
 14 15  1  0
 13 16  2  0
 16 17  1  0
 11  7  1  0
 17 10  2  0
  1 18  1  0
  1 19  1  0
  1 20  1  0
  4 21  1  0
  5 22  1  0
  5 23  1  0
  6 24  1  0
  6 25  1  0
  8 26  1  0
  9 27  1  0
 12 28  1  0
 15 29  1  0
 15 30  1  0
 15 31  1  0
 16 32  1  0
 17 33  1  0
M  END
>  <coordinate_phase>  (8) 
ETKDG_before_MMFF

>  <molecule_id>  (8) 
melatonin

>  <seed>  (8) 
20260928

>  <conformer_id>  (8) 
7

$$$$
melatonin_20260928_8
     RDKit          3D

 33 34  0  0  0  0  0  0  0  0999 V2000
    5.3123   -0.6164   -1.2404 C   0  0  0  0  0  0  0  0  0  0  0  0
    4.5714    0.1766   -0.2309 C   0  0  0  0  0  0  0  0  0  0  0  0
    5.1013    1.1099    0.4411 O   0  0  0  0  0  0  0  0  0  0  0  0
    3.1875   -0.0761    0.0436 N   0  0  0  0  0  0  0  0  0  0  0  0
    2.5425    0.7484    1.0470 C   0  0  0  0  0  0  0  0  0  0  0  0
    1.0829    0.3616    1.2249 C   0  0  0  0  0  0  0  0  0  0  0  0
    0.3360    0.5196   -0.0261 C   0  0  0  0  0  0  0  0  0  0  0  0
    0.7424    0.9442   -1.2751 C   0  0  0  0  0  0  0  0  0  0  0  0
   -0.3225    0.9220   -2.1235 N   0  0  0  0  0  0  0  0  0  0  0  0
   -1.4183    0.4876   -1.4411 C   0  0  0  0  0  0  0  0  0  0  0  0
   -1.0270    0.2337   -0.1387 C   0  0  0  0  0  0  0  0  0  0  0  0
   -1.9636   -0.2282    0.7872 C   0  0  0  0  0  0  0  0  0  0  0  0
   -3.2819   -0.4407    0.4362 C   0  0  0  0  0  0  0  0  0  0  0  0
   -4.1409   -0.9000    1.4201 O   0  0  0  0  0  0  0  0  0  0  0  0
   -5.5195   -1.1611    1.2003 C   0  0  0  0  0  0  0  0  0  0  0  0
   -3.6698   -0.1871   -0.8619 C   0  0  0  0  0  0  0  0  0  0  0  0
   -2.7364    0.2745   -1.7894 C   0  0  0  0  0  0  0  0  0  0  0  0
    5.1632   -0.2478   -2.2744 H   0  0  0  0  0  0  0  0  0  0  0  0
    6.4103   -0.5295   -1.0275 H   0  0  0  0  0  0  0  0  0  0  0  0
    5.0991   -1.7170   -1.1646 H   0  0  0  0  0  0  0  0  0  0  0  0
    2.6709   -0.8376   -0.4737 H   0  0  0  0  0  0  0  0  0  0  0  0
    2.6556    1.8346    0.8192 H   0  0  0  0  0  0  0  0  0  0  0  0
    3.0977    0.5873    1.9927 H   0  0  0  0  0  0  0  0  0  0  0  0
    1.0812   -0.6823    1.6063 H   0  0  0  0  0  0  0  0  0  0  0  0
    0.6678    0.9698    2.0546 H   0  0  0  0  0  0  0  0  0  0  0  0
    1.7650    1.2422   -1.5059 H   0  0  0  0  0  0  0  0  0  0  0  0
   -0.2984    1.1985   -3.1475 H   0  0  0  0  0  0  0  0  0  0  0  0
   -1.6439   -0.4213    1.7969 H   0  0  0  0  0  0  0  0  0  0  0  0
   -6.1070   -1.0189    2.1424 H   0  0  0  0  0  0  0  0  0  0  0  0
   -5.9626   -0.4768    0.4342 H   0  0  0  0  0  0  0  0  0  0  0  0
   -5.6459   -2.1880    0.8127 H   0  0  0  0  0  0  0  0  0  0  0  0
   -4.6883   -0.3461   -1.1526 H   0  0  0  0  0  0  0  0  0  0  0  0
   -3.0611    0.4644   -2.7916 H   0  0  0  0  0  0  0  0  0  0  0  0
  1  2  1  0
  2  3  2  0
  2  4  1  0
  4  5  1  0
  5  6  1  0
  6  7  1  0
  7  8  2  0
  8  9  1  0
  9 10  1  0
 10 11  1  0
 11 12  2  0
 12 13  1  0
 13 14  1  0
 14 15  1  0
 13 16  2  0
 16 17  1  0
 11  7  1  0
 17 10  2  0
  1 18  1  0
  1 19  1  0
  1 20  1  0
  4 21  1  0
  5 22  1  0
  5 23  1  0
  6 24  1  0
  6 25  1  0
  8 26  1  0
  9 27  1  0
 12 28  1  0
 15 29  1  0
 15 30  1  0
 15 31  1  0
 16 32  1  0
 17 33  1  0
M  END
>  <coordinate_phase>  (9) 
ETKDG_before_MMFF

>  <molecule_id>  (9) 
melatonin

>  <seed>  (9) 
20260928

>  <conformer_id>  (9) 
8

$$$$
melatonin_20260928_9
     RDKit          3D

 33 34  0  0  0  0  0  0  0  0999 V2000
   -5.4345    1.2317    0.7469 C   0  0  0  0  0  0  0  0  0  0  0  0
   -4.1944    0.4448    0.7582 C   0  0  0  0  0  0  0  0  0  0  0  0
   -3.4952    0.4432    1.8220 O   0  0  0  0  0  0  0  0  0  0  0  0
   -3.7962   -0.2832   -0.3753 N   0  0  0  0  0  0  0  0  0  0  0  0
   -2.5681   -1.0796   -0.4053 C   0  0  0  0  0  0  0  0  0  0  0  0
   -1.3562   -0.2308   -0.1602 C   0  0  0  0  0  0  0  0  0  0  0  0
   -0.1182   -1.0591   -0.1947 C   0  0  0  0  0  0  0  0  0  0  0  0
    0.0052   -2.4026   -0.4101 C   0  0  0  0  0  0  0  0  0  0  0  0
    1.3280   -2.6799   -0.3448 N   0  0  0  0  0  0  0  0  0  0  0  0
    2.0348   -1.5795   -0.1001 C   0  0  0  0  0  0  0  0  0  0  0  0
    1.1387   -0.5282    0.0008 C   0  0  0  0  0  0  0  0  0  0  0  0
    1.5867    0.7651    0.2560 C   0  0  0  0  0  0  0  0  0  0  0  0
    2.9462    1.0190    0.4137 C   0  0  0  0  0  0  0  0  0  0  0  0
    3.3712    2.3240    0.6689 O   0  0  0  0  0  0  0  0  0  0  0  0
    4.7500    2.6020    0.8322 C   0  0  0  0  0  0  0  0  0  0  0  0
    3.8417   -0.0283    0.3134 C   0  0  0  0  0  0  0  0  0  0  0  0
    3.3954   -1.3264    0.0575 C   0  0  0  0  0  0  0  0  0  0  0  0
   -5.5660    1.8115    1.6790 H   0  0  0  0  0  0  0  0  0  0  0  0
   -5.4949    1.9421   -0.0859 H   0  0  0  0  0  0  0  0  0  0  0  0
   -6.3492    0.5839    0.6895 H   0  0  0  0  0  0  0  0  0  0  0  0
   -4.4199   -0.2437   -1.2335 H   0  0  0  0  0  0  0  0  0  0  0  0
   -2.6262   -1.9179    0.3234 H   0  0  0  0  0  0  0  0  0  0  0  0
   -2.4610   -1.5257   -1.4108 H   0  0  0  0  0  0  0  0  0  0  0  0
   -1.4002    0.3461    0.7868 H   0  0  0  0  0  0  0  0  0  0  0  0
   -1.3415    0.5491   -0.9762 H   0  0  0  0  0  0  0  0  0  0  0  0
   -0.8058   -3.1113   -0.5978 H   0  0  0  0  0  0  0  0  0  0  0  0
    1.7172   -3.6331   -0.4721 H   0  0  0  0  0  0  0  0  0  0  0  0
    0.9108    1.5972    0.3387 H   0  0  0  0  0  0  0  0  0  0  0  0
    5.3175    2.0851    0.0094 H   0  0  0  0  0  0  0  0  0  0  0  0
    4.9510    3.6777    0.7074 H   0  0  0  0  0  0  0  0  0  0  0  0
    5.1123    2.2111    1.8044 H   0  0  0  0  0  0  0  0  0  0  0  0
    4.9052    0.1310    0.4301 H   0  0  0  0  0  0  0  0  0  0  0  0
    4.1156   -2.1352   -0.0175 H   0  0  0  0  0  0  0  0  0  0  0  0
  1  2  1  0
  2  3  2  0
  2  4  1  0
  4  5  1  0
  5  6  1  0
  6  7  1  0
  7  8  2  0
  8  9  1  0
  9 10  1  0
 10 11  1  0
 11 12  2  0
 12 13  1  0
 13 14  1  0
 14 15  1  0
 13 16  2  0
 16 17  1  0
 11  7  1  0
 17 10  2  0
  1 18  1  0
  1 19  1  0
  1 20  1  0
  4 21  1  0
  5 22  1  0
  5 23  1  0
  6 24  1  0
  6 25  1  0
  8 26  1  0
  9 27  1  0
 12 28  1  0
 15 29  1  0
 15 30  1  0
 15 31  1  0
 16 32  1  0
 17 33  1  0
M  END
>  <coordinate_phase>  (10) 
ETKDG_before_MMFF

>  <molecule_id>  (10) 
melatonin

>  <seed>  (10) 
20260928

>  <conformer_id>  (10) 
9

$$$$
melatonin_20260928_10
     RDKit          3D

 33 34  0  0  0  0  0  0  0  0999 V2000
    4.8574    1.6831    0.2312 C   0  0  0  0  0  0  0  0  0  0  0  0
    3.4687    1.1629    0.1141 C   0  0  0  0  0  0  0  0  0  0  0  0
    2.5922    1.5137    0.9485 O   0  0  0  0  0  0  0  0  0  0  0  0
    3.1066    0.2666   -0.9330 N   0  0  0  0  0  0  0  0  0  0  0  0
    1.7812   -0.2742   -1.0985 C   0  0  0  0  0  0  0  0  0  0  0  0
    1.3132   -1.0785    0.0845 C   0  0  0  0  0  0  0  0  0  0  0  0
   -0.0538   -1.6311   -0.1037 C   0  0  0  0  0  0  0  0  0  0  0  0
   -0.2934   -2.9517   -0.4225 C   0  0  0  0  0  0  0  0  0  0  0  0
   -1.6133   -3.1559   -0.5339 N   0  0  0  0  0  0  0  0  0  0  0  0
   -2.2089   -1.9799   -0.2893 C   0  0  0  0  0  0  0  0  0  0  0  0
   -1.2777   -0.9987   -0.0159 C   0  0  0  0  0  0  0  0  0  0  0  0
   -1.6305    0.2996    0.2699 C   0  0  0  0  0  0  0  0  0  0  0  0
   -2.9447    0.6686    0.2930 C   0  0  0  0  0  0  0  0  0  0  0  0
   -3.4555    1.9058    0.5571 O   0  0  0  0  0  0  0  0  0  0  0  0
   -2.6715    3.0056    0.8512 C   0  0  0  0  0  0  0  0  0  0  0  0
   -3.8749   -0.3428    0.0122 C   0  0  0  0  0  0  0  0  0  0  0  0
   -3.5278   -1.6224   -0.2695 C   0  0  0  0  0  0  0  0  0  0  0  0
    4.9531    2.2374    1.1900 H   0  0  0  0  0  0  0  0  0  0  0  0
    5.6050    0.8572    0.1900 H   0  0  0  0  0  0  0  0  0  0  0  0
    5.1248    2.3950   -0.5694 H   0  0  0  0  0  0  0  0  0  0  0  0
    3.9026    0.0223   -1.5991 H   0  0  0  0  0  0  0  0  0  0  0  0
    1.8242   -0.9918   -1.9536 H   0  0  0  0  0  0  0  0  0  0  0  0
    1.0438    0.4928   -1.3996 H   0  0  0  0  0  0  0  0  0  0  0  0
    2.0030   -1.8563    0.3944 H   0  0  0  0  0  0  0  0  0  0  0  0
    1.2173   -0.3663    0.9435 H   0  0  0  0  0  0  0  0  0  0  0  0
    0.4657   -3.7197   -0.5647 H   0  0  0  0  0  0  0  0  0  0  0  0
   -2.1026   -4.0373   -0.7625 H   0  0  0  0  0  0  0  0  0  0  0  0
   -0.8559    1.0004    0.4717 H   0  0  0  0  0  0  0  0  0  0  0  0
   -1.6225    2.8013    0.6630 H   0  0  0  0  0  0  0  0  0  0  0  0
   -2.8641    3.2891    1.9245 H   0  0  0  0  0  0  0  0  0  0  0  0
   -3.0469    3.8970    0.2807 H   0  0  0  0  0  0  0  0  0  0  0  0
   -4.9512   -0.1103    0.0148 H   0  0  0  0  0  0  0  0  0  0  0  0
   -4.2637   -2.3815   -0.4812 H   0  0  0  0  0  0  0  0  0  0  0  0
  1  2  1  0
  2  3  2  0
  2  4  1  0
  4  5  1  0
  5  6  1  0
  6  7  1  0
  7  8  2  0
  8  9  1  0
  9 10  1  0
 10 11  1  0
 11 12  2  0
 12 13  1  0
 13 14  1  0
 14 15  1  0
 13 16  2  0
 16 17  1  0
 11  7  1  0
 17 10  2  0
  1 18  1  0
  1 19  1  0
  1 20  1  0
  4 21  1  0
  5 22  1  0
  5 23  1  0
  6 24  1  0
  6 25  1  0
  8 26  1  0
  9 27  1  0
 12 28  1  0
 15 29  1  0
 15 30  1  0
 15 31  1  0
 16 32  1  0
 17 33  1  0
M  END
>  <coordinate_phase>  (11) 
ETKDG_before_MMFF

>  <molecule_id>  (11) 
melatonin

>  <seed>  (11) 
20260928

>  <conformer_id>  (11) 
10

$$$$
melatonin_20260928_11
     RDKit          3D

 33 34  0  0  0  0  0  0  0  0999 V2000
   -6.0039    1.2165   -0.2477 C   0  0  0  0  0  0  0  0  0  0  0  0
   -4.8193    0.4792    0.3139 C   0  0  0  0  0  0  0  0  0  0  0  0
   -4.9576   -0.1311    1.4503 O   0  0  0  0  0  0  0  0  0  0  0  0
   -3.5611    0.4418   -0.3580 N   0  0  0  0  0  0  0  0  0  0  0  0
   -2.4354   -0.2736    0.1792 C   0  0  0  0  0  0  0  0  0  0  0  0
   -1.2525   -0.2519   -0.7759 C   0  0  0  0  0  0  0  0  0  0  0  0
   -0.1106   -0.9774   -0.1960 C   0  0  0  0  0  0  0  0  0  0  0  0
   -0.1493   -2.2312    0.4071 C   0  0  0  0  0  0  0  0  0  0  0  0
    1.0691   -2.5586    0.8733 N   0  0  0  0  0  0  0  0  0  0  0  0
    1.8879   -1.5369    0.5768 C   0  0  0  0  0  0  0  0  0  0  0  0
    1.1923   -0.5405   -0.0845 C   0  0  0  0  0  0  0  0  0  0  0  0
    1.8364    0.5985   -0.5597 C   0  0  0  0  0  0  0  0  0  0  0  0
    3.2051    0.7532   -0.3771 C   0  0  0  0  0  0  0  0  0  0  0  0
    3.8811    1.8546   -0.8348 O   0  0  0  0  0  0  0  0  0  0  0  0
    5.2950    1.9939   -0.6794 C   0  0  0  0  0  0  0  0  0  0  0  0
    3.9195   -0.2517    0.2979 C   0  0  0  0  0  0  0  0  0  0  0  0
    3.2361   -1.3719    0.7570 C   0  0  0  0  0  0  0  0  0  0  0  0
   -6.6566    1.5014    0.6212 H   0  0  0  0  0  0  0  0  0  0  0  0
   -5.7349    2.1428   -0.7686 H   0  0  0  0  0  0  0  0  0  0  0  0
   -6.5939    0.5911   -0.9499 H   0  0  0  0  0  0  0  0  0  0  0  0
   -3.4406    0.9318   -1.2652 H   0  0  0  0  0  0  0  0  0  0  0  0
   -2.6882   -1.3786    0.3037 H   0  0  0  0  0  0  0  0  0  0  0  0
   -2.1154    0.0905    1.1594 H   0  0  0  0  0  0  0  0  0  0  0  0
   -1.5194   -0.7369   -1.7316 H   0  0  0  0  0  0  0  0  0  0  0  0
   -0.9369    0.8346   -0.9156 H   0  0  0  0  0  0  0  0  0  0  0  0
   -1.0113   -2.8380    0.4874 H   0  0  0  0  0  0  0  0  0  0  0  0
    1.3650   -3.4367    1.3814 H   0  0  0  0  0  0  0  0  0  0  0  0
    1.2487    1.3233   -1.0547 H   0  0  0  0  0  0  0  0  0  0  0  0
    5.6459    2.0333    0.3462 H   0  0  0  0  0  0  0  0  0  0  0  0
    5.8073    1.0738   -1.1226 H   0  0  0  0  0  0  0  0  0  0  0  0
    5.6706    2.8721   -1.2186 H   0  0  0  0  0  0  0  0  0  0  0  0
    4.9559   -0.0869    0.4311 H   0  0  0  0  0  0  0  0  0  0  0  0
    3.7708   -2.1305    1.2779 H   0  0  0  0  0  0  0  0  0  0  0  0
  1  2  1  0
  2  3  2  0
  2  4  1  0
  4  5  1  0
  5  6  1  0
  6  7  1  0
  7  8  2  0
  8  9  1  0
  9 10  1  0
 10 11  1  0
 11 12  2  0
 12 13  1  0
 13 14  1  0
 14 15  1  0
 13 16  2  0
 16 17  1  0
 11  7  1  0
 17 10  2  0
  1 18  1  0
  1 19  1  0
  1 20  1  0
  4 21  1  0
  5 22  1  0
  5 23  1  0
  6 24  1  0
  6 25  1  0
  8 26  1  0
  9 27  1  0
 12 28  1  0
 15 29  1  0
 15 30  1  0
 15 31  1  0
 16 32  1  0
 17 33  1  0
M  END
>  <coordinate_phase>  (12) 
ETKDG_before_MMFF

>  <molecule_id>  (12) 
melatonin

>  <seed>  (12) 
20260928

>  <conformer_id>  (12) 
11

$$$$
melatonin_20260928_12
     RDKit          3D

 33 34  0  0  0  0  0  0  0  0999 V2000
    4.7081   -0.1219   -0.3842 C   0  0  0  0  0  0  0  0  0  0  0  0
    3.5540    0.7884   -0.1537 C   0  0  0  0  0  0  0  0  0  0  0  0
    3.7001    1.6321    0.7869 O   0  0  0  0  0  0  0  0  0  0  0  0
    2.3604    0.7568   -0.8995 N   0  0  0  0  0  0  0  0  0  0  0  0
    1.2652    1.6534   -0.6482 C   0  0  0  0  0  0  0  0  0  0  0  0
    0.7394    1.4986    0.7549 C   0  0  0  0  0  0  0  0  0  0  0  0
    0.2486    0.1291    1.0251 C   0  0  0  0  0  0  0  0  0  0  0  0
    0.9337   -0.8169    1.7714 C   0  0  0  0  0  0  0  0  0  0  0  0
    0.1730   -1.9302    1.7956 N   0  0  0  0  0  0  0  0  0  0  0  0
   -0.9601   -1.7296    1.0987 C   0  0  0  0  0  0  0  0  0  0  0  0
   -0.9394   -0.4246    0.5956 C   0  0  0  0  0  0  0  0  0  0  0  0
   -1.9803    0.0613   -0.1629 C   0  0  0  0  0  0  0  0  0  0  0  0
   -3.0755   -0.7067   -0.4568 C   0  0  0  0  0  0  0  0  0  0  0  0
   -4.1392   -0.2711   -1.2083 O   0  0  0  0  0  0  0  0  0  0  0  0
   -4.1186    1.0528   -1.7194 C   0  0  0  0  0  0  0  0  0  0  0  0
   -3.1243   -2.0166    0.0331 C   0  0  0  0  0  0  0  0  0  0  0  0
   -2.0715   -2.4927    0.7942 C   0  0  0  0  0  0  0  0  0  0  0  0
    5.6165    0.5154   -0.5079 H   0  0  0  0  0  0  0  0  0  0  0  0
    4.5470   -0.8239   -1.2156 H   0  0  0  0  0  0  0  0  0  0  0  0
    4.8669   -0.6447    0.6041 H   0  0  0  0  0  0  0  0  0  0  0  0
    2.2822    0.0431   -1.6683 H   0  0  0  0  0  0  0  0  0  0  0  0
    0.4606    1.5615   -1.3782 H   0  0  0  0  0  0  0  0  0  0  0  0
    1.6718    2.7011   -0.7544 H   0  0  0  0  0  0  0  0  0  0  0  0
    1.4900    1.7775    1.5205 H   0  0  0  0  0  0  0  0  0  0  0  0
   -0.0906    2.2461    0.9033 H   0  0  0  0  0  0  0  0  0  0  0  0
    1.8960   -0.7363    2.2644 H   0  0  0  0  0  0  0  0  0  0  0  0
    0.3824   -2.8421    2.2690 H   0  0  0  0  0  0  0  0  0  0  0  0
   -1.9295    1.0687   -0.5329 H   0  0  0  0  0  0  0  0  0  0  0  0
   -3.9960    1.7835   -0.8684 H   0  0  0  0  0  0  0  0  0  0  0  0
   -5.1070    1.2474   -2.1902 H   0  0  0  0  0  0  0  0  0  0  0  0
   -3.3052    1.1985   -2.4755 H   0  0  0  0  0  0  0  0  0  0  0  0
   -3.9672   -2.6627   -0.1713 H   0  0  0  0  0  0  0  0  0  0  0  0
   -2.0915   -3.4949    1.1788 H   0  0  0  0  0  0  0  0  0  0  0  0
  1  2  1  0
  2  3  2  0
  2  4  1  0
  4  5  1  0
  5  6  1  0
  6  7  1  0
  7  8  2  0
  8  9  1  0
  9 10  1  0
 10 11  1  0
 11 12  2  0
 12 13  1  0
 13 14  1  0
 14 15  1  0
 13 16  2  0
 16 17  1  0
 11  7  1  0
 17 10  2  0
  1 18  1  0
  1 19  1  0
  1 20  1  0
  4 21  1  0
  5 22  1  0
  5 23  1  0
  6 24  1  0
  6 25  1  0
  8 26  1  0
  9 27  1  0
 12 28  1  0
 15 29  1  0
 15 30  1  0
 15 31  1  0
 16 32  1  0
 17 33  1  0
M  END
>  <coordinate_phase>  (13) 
ETKDG_before_MMFF

>  <molecule_id>  (13) 
melatonin

>  <seed>  (13) 
20260928

>  <conformer_id>  (13) 
12

$$$$
melatonin_20260928_13
     RDKit          3D

 33 34  0  0  0  0  0  0  0  0999 V2000
    5.0967    1.8670    0.3489 C   0  0  0  0  0  0  0  0  0  0  0  0
    3.9510    0.9267    0.0818 C   0  0  0  0  0  0  0  0  0  0  0  0
    4.1189    0.0684   -0.8215 O   0  0  0  0  0  0  0  0  0  0  0  0
    2.7319    1.0158    0.8282 N   0  0  0  0  0  0  0  0  0  0  0  0
    1.6953    0.0740    0.5002 C   0  0  0  0  0  0  0  0  0  0  0  0
    1.2092    0.1422   -0.9135 C   0  0  0  0  0  0  0  0  0  0  0  0
    0.1439   -0.9145   -1.0331 C   0  0  0  0  0  0  0  0  0  0  0  0
    0.2785   -2.1472   -1.6503 C   0  0  0  0  0  0  0  0  0  0  0  0
   -0.8620   -2.8322   -1.5722 N   0  0  0  0  0  0  0  0  0  0  0  0
   -1.7462   -2.0650   -0.9106 C   0  0  0  0  0  0  0  0  0  0  0  0
   -1.1579   -0.8551   -0.5544 C   0  0  0  0  0  0  0  0  0  0  0  0
   -1.8543    0.1079    0.1325 C   0  0  0  0  0  0  0  0  0  0  0  0
   -3.1751   -0.1162    0.4862 C   0  0  0  0  0  0  0  0  0  0  0  0
   -3.9578    0.7713    1.1680 O   0  0  0  0  0  0  0  0  0  0  0  0
   -3.5985    2.0357    1.6286 C   0  0  0  0  0  0  0  0  0  0  0  0
   -3.7634   -1.3336    0.1265 C   0  0  0  0  0  0  0  0  0  0  0  0
   -3.0650   -2.3004   -0.5629 C   0  0  0  0  0  0  0  0  0  0  0  0
    6.0439    1.2824    0.2491 H   0  0  0  0  0  0  0  0  0  0  0  0
    5.0037    2.1660    1.3964 H   0  0  0  0  0  0  0  0  0  0  0  0
    5.0135    2.6812   -0.3865 H   0  0  0  0  0  0  0  0  0  0  0  0
    2.6258    1.7554    1.5859 H   0  0  0  0  0  0  0  0  0  0  0  0
    0.8078    0.3068    1.1485 H   0  0  0  0  0  0  0  0  0  0  0  0
    1.9794   -0.9734    0.7207 H   0  0  0  0  0  0  0  0  0  0  0  0
    0.7296    1.1363   -1.1294 H   0  0  0  0  0  0  0  0  0  0  0  0
    1.9537   -0.0720   -1.6841 H   0  0  0  0  0  0  0  0  0  0  0  0
    1.2179   -2.4478   -2.1151 H   0  0  0  0  0  0  0  0  0  0  0  0
   -1.0631   -3.7913   -1.9465 H   0  0  0  0  0  0  0  0  0  0  0  0
   -1.3933    1.0313    0.4001 H   0  0  0  0  0  0  0  0  0  0  0  0
   -2.6155    2.1210    2.1018 H   0  0  0  0  0  0  0  0  0  0  0  0
   -4.3792    2.4062    2.3423 H   0  0  0  0  0  0  0  0  0  0  0  0
   -3.6323    2.7609    0.7889 H   0  0  0  0  0  0  0  0  0  0  0  0
   -4.7878   -1.5616    0.3758 H   0  0  0  0  0  0  0  0  0  0  0  0
   -3.5494   -3.2461   -0.8330 H   0  0  0  0  0  0  0  0  0  0  0  0
  1  2  1  0
  2  3  2  0
  2  4  1  0
  4  5  1  0
  5  6  1  0
  6  7  1  0
  7  8  2  0
  8  9  1  0
  9 10  1  0
 10 11  1  0
 11 12  2  0
 12 13  1  0
 13 14  1  0
 14 15  1  0
 13 16  2  0
 16 17  1  0
 11  7  1  0
 17 10  2  0
  1 18  1  0
  1 19  1  0
  1 20  1  0
  4 21  1  0
  5 22  1  0
  5 23  1  0
  6 24  1  0
  6 25  1  0
  8 26  1  0
  9 27  1  0
 12 28  1  0
 15 29  1  0
 15 30  1  0
 15 31  1  0
 16 32  1  0
 17 33  1  0
M  END
>  <coordinate_phase>  (14) 
ETKDG_before_MMFF

>  <molecule_id>  (14) 
melatonin

>  <seed>  (14) 
20260928

>  <conformer_id>  (14) 
13

$$$$
melatonin_20260928_14
     RDKit          3D

 33 34  0  0  0  0  0  0  0  0999 V2000
   -4.7350    0.6812    1.1758 C   0  0  0  0  0  0  0  0  0  0  0  0
   -3.8191   -0.3829    0.6394 C   0  0  0  0  0  0  0  0  0  0  0  0
   -4.2608   -1.0938   -0.3261 O   0  0  0  0  0  0  0  0  0  0  0  0
   -2.5193   -0.5896    1.1819 N   0  0  0  0  0  0  0  0  0  0  0  0
   -1.6401   -1.6166    0.6627 C   0  0  0  0  0  0  0  0  0  0  0  0
   -1.3456   -1.3743   -0.8086 C   0  0  0  0  0  0  0  0  0  0  0  0
   -0.6893   -0.0551   -0.9677 C   0  0  0  0  0  0  0  0  0  0  0  0
   -1.1677    1.1442   -1.4081 C   0  0  0  0  0  0  0  0  0  0  0  0
   -0.1667    2.0405   -1.3623 N   0  0  0  0  0  0  0  0  0  0  0  0
    0.9672    1.4516   -0.8979 C   0  0  0  0  0  0  0  0  0  0  0  0
    0.6503    0.1461   -0.6496 C   0  0  0  0  0  0  0  0  0  0  0  0
    1.6420   -0.6832   -0.1631 C   0  0  0  0  0  0  0  0  0  0  0  0
    2.9284   -0.2384    0.0770 C   0  0  0  0  0  0  0  0  0  0  0  0
    3.8604   -1.1435    0.5670 O   0  0  0  0  0  0  0  0  0  0  0  0
    5.1937   -0.8627    0.8615 C   0  0  0  0  0  0  0  0  0  0  0  0
    3.2266    1.0875   -0.1818 C   0  0  0  0  0  0  0  0  0  0  0  0
    2.2447    1.9545   -0.6754 C   0  0  0  0  0  0  0  0  0  0  0  0
   -4.4825    0.7796    2.2544 H   0  0  0  0  0  0  0  0  0  0  0  0
   -4.5833    1.6451    0.6872 H   0  0  0  0  0  0  0  0  0  0  0  0
   -5.7796    0.3396    1.0185 H   0  0  0  0  0  0  0  0  0  0  0  0
   -2.2322    0.0375    1.9757 H   0  0  0  0  0  0  0  0  0  0  0  0
   -2.1265   -2.6226    0.7844 H   0  0  0  0  0  0  0  0  0  0  0  0
   -0.6823   -1.6363    1.2222 H   0  0  0  0  0  0  0  0  0  0  0  0
   -2.2479   -1.4800   -1.4336 H   0  0  0  0  0  0  0  0  0  0  0  0
   -0.6402   -2.1678   -1.1531 H   0  0  0  0  0  0  0  0  0  0  0  0
   -2.1891    1.3070   -1.7319 H   0  0  0  0  0  0  0  0  0  0  0  0
   -0.2336    3.0527   -1.6414 H   0  0  0  0  0  0  0  0  0  0  0  0
    1.4071   -1.7162    0.0376 H   0  0  0  0  0  0  0  0  0  0  0  0
    5.3637   -0.5476    1.9082 H   0  0  0  0  0  0  0  0  0  0  0  0
    5.7780   -1.8046    0.6672 H   0  0  0  0  0  0  0  0  0  0  0  0
    5.5913   -0.1012    0.1477 H   0  0  0  0  0  0  0  0  0  0  0  0
    4.2204    1.4540   -0.0023 H   0  0  0  0  0  0  0  0  0  0  0  0
    2.4670    2.9954   -0.8821 H   0  0  0  0  0  0  0  0  0  0  0  0
  1  2  1  0
  2  3  2  0
  2  4  1  0
  4  5  1  0
  5  6  1  0
  6  7  1  0
  7  8  2  0
  8  9  1  0
  9 10  1  0
 10 11  1  0
 11 12  2  0
 12 13  1  0
 13 14  1  0
 14 15  1  0
 13 16  2  0
 16 17  1  0
 11  7  1  0
 17 10  2  0
  1 18  1  0
  1 19  1  0
  1 20  1  0
  4 21  1  0
  5 22  1  0
  5 23  1  0
  6 24  1  0
  6 25  1  0
  8 26  1  0
  9 27  1  0
 12 28  1  0
 15 29  1  0
 15 30  1  0
 15 31  1  0
 16 32  1  0
 17 33  1  0
M  END
>  <coordinate_phase>  (15) 
ETKDG_before_MMFF

>  <molecule_id>  (15) 
melatonin

>  <seed>  (15) 
20260928

>  <conformer_id>  (15) 
14

$$$$
melatonin_20260928_15
     RDKit          3D

 33 34  0  0  0  0  0  0  0  0999 V2000
   -4.9660    0.2700    1.6048 C   0  0  0  0  0  0  0  0  0  0  0  0
   -4.3985   -0.0817    0.2784 C   0  0  0  0  0  0  0  0  0  0  0  0
   -5.1157   -0.5828   -0.6452 O   0  0  0  0  0  0  0  0  0  0  0  0
   -3.0240    0.1141   -0.0579 N   0  0  0  0  0  0  0  0  0  0  0  0
   -2.6274   -0.2815   -1.3940 C   0  0  0  0  0  0  0  0  0  0  0  0
   -1.1509   -0.0034   -1.5680 C   0  0  0  0  0  0  0  0  0  0  0  0
   -0.3212   -0.7373   -0.6057 C   0  0  0  0  0  0  0  0  0  0  0  0
   -0.5759   -1.8723    0.1360 C   0  0  0  0  0  0  0  0  0  0  0  0
    0.5162   -2.1604    0.8881 N   0  0  0  0  0  0  0  0  0  0  0  0
    1.4809   -1.2295    0.6473 C   0  0  0  0  0  0  0  0  0  0  0  0
    0.9798   -0.3376   -0.2770 C   0  0  0  0  0  0  0  0  0  0  0  0
    1.7476    0.7422   -0.7299 C   0  0  0  0  0  0  0  0  0  0  0  0
    3.0279    0.8923   -0.2226 C   0  0  0  0  0  0  0  0  0  0  0  0
    3.8279    1.9503   -0.6416 O   0  0  0  0  0  0  0  0  0  0  0  0
    5.1273    2.1334   -0.1487 C   0  0  0  0  0  0  0  0  0  0  0  0
    3.5154   -0.0215    0.7129 C   0  0  0  0  0  0  0  0  0  0  0  0
    2.7617   -1.0739    1.1510 C   0  0  0  0  0  0  0  0  0  0  0  0
   -4.1560    0.5356    2.2854 H   0  0  0  0  0  0  0  0  0  0  0  0
   -5.6252    1.1630    1.4143 H   0  0  0  0  0  0  0  0  0  0  0  0
   -5.5609   -0.5626    2.0330 H   0  0  0  0  0  0  0  0  0  0  0  0
   -2.3839    0.5203    0.6499 H   0  0  0  0  0  0  0  0  0  0  0  0
   -2.8101   -1.3663   -1.5214 H   0  0  0  0  0  0  0  0  0  0  0  0
   -3.2187    0.2547   -2.1739 H   0  0  0  0  0  0  0  0  0  0  0  0
   -0.9363    1.0796   -1.5645 H   0  0  0  0  0  0  0  0  0  0  0  0
   -0.8523   -0.3589   -2.5958 H   0  0  0  0  0  0  0  0  0  0  0  0
   -1.4947   -2.4190    0.1031 H   0  0  0  0  0  0  0  0  0  0  0  0
    0.6499   -2.9497    1.5600 H   0  0  0  0  0  0  0  0  0  0  0  0
    1.3652    1.4480   -1.4557 H   0  0  0  0  0  0  0  0  0  0  0  0
    5.4963    3.1449   -0.4432 H   0  0  0  0  0  0  0  0  0  0  0  0
    5.8282    1.3320   -0.4992 H   0  0  0  0  0  0  0  0  0  0  0  0
    5.1866    2.1067    0.9708 H   0  0  0  0  0  0  0  0  0  0  0  0
    4.5213    0.1108    1.0958 H   0  0  0  0  0  0  0  0  0  0  0  0
    3.1855   -1.7597    1.8836 H   0  0  0  0  0  0  0  0  0  0  0  0
  1  2  1  0
  2  3  2  0
  2  4  1  0
  4  5  1  0
  5  6  1  0
  6  7  1  0
  7  8  2  0
  8  9  1  0
  9 10  1  0
 10 11  1  0
 11 12  2  0
 12 13  1  0
 13 14  1  0
 14 15  1  0
 13 16  2  0
 16 17  1  0
 11  7  1  0
 17 10  2  0
  1 18  1  0
  1 19  1  0
  1 20  1  0
  4 21  1  0
  5 22  1  0
  5 23  1  0
  6 24  1  0
  6 25  1  0
  8 26  1  0
  9 27  1  0
 12 28  1  0
 15 29  1  0
 15 30  1  0
 15 31  1  0
 16 32  1  0
 17 33  1  0
M  END
>  <coordinate_phase>  (16) 
ETKDG_before_MMFF

>  <molecule_id>  (16) 
melatonin

>  <seed>  (16) 
20260928

>  <conformer_id>  (16) 
15

$$$$
melatonin_20260928_16
     RDKit          3D

 33 34  0  0  0  0  0  0  0  0999 V2000
   -5.3645    1.6504    0.6962 C   0  0  0  0  0  0  0  0  0  0  0  0
   -4.1710    1.0158    0.0446 C   0  0  0  0  0  0  0  0  0  0  0  0
   -4.0405    1.0947   -1.1958 O   0  0  0  0  0  0  0  0  0  0  0  0
   -3.2327    0.3434    0.8946 N   0  0  0  0  0  0  0  0  0  0  0  0
   -2.0854   -0.2622    0.2405 C   0  0  0  0  0  0  0  0  0  0  0  0
   -1.1687   -0.9497    1.2305 C   0  0  0  0  0  0  0  0  0  0  0  0
    0.0008   -1.5569    0.5498 C   0  0  0  0  0  0  0  0  0  0  0  0
    0.1377   -2.9020    0.2651 C   0  0  0  0  0  0  0  0  0  0  0  0
    1.3200   -3.0998   -0.3643 N   0  0  0  0  0  0  0  0  0  0  0  0
    1.9340   -1.8953   -0.4813 C   0  0  0  0  0  0  0  0  0  0  0  0
    1.1459   -0.9112    0.0751 C   0  0  0  0  0  0  0  0  0  0  0  0
    1.5531    0.4096    0.0882 C   0  0  0  0  0  0  0  0  0  0  0  0
    2.7762    0.8112   -0.4581 C   0  0  0  0  0  0  0  0  0  0  0  0
    3.0702    2.1357   -0.3873 O   0  0  0  0  0  0  0  0  0  0  0  0
    4.2354    2.6931   -0.8813 C   0  0  0  0  0  0  0  0  0  0  0  0
    3.5450   -0.1792   -1.0062 C   0  0  0  0  0  0  0  0  0  0  0  0
    3.1432   -1.5234   -1.0261 C   0  0  0  0  0  0  0  0  0  0  0  0
   -5.3290    1.3967    1.7687 H   0  0  0  0  0  0  0  0  0  0  0  0
   -5.3081    2.7420    0.5231 H   0  0  0  0  0  0  0  0  0  0  0  0
   -6.2676    1.1901    0.2071 H   0  0  0  0  0  0  0  0  0  0  0  0
   -3.3428    0.2803    1.9255 H   0  0  0  0  0  0  0  0  0  0  0  0
   -1.5486    0.5255   -0.3181 H   0  0  0  0  0  0  0  0  0  0  0  0
   -2.4872   -1.0126   -0.4877 H   0  0  0  0  0  0  0  0  0  0  0  0
   -1.6987   -1.7315    1.7988 H   0  0  0  0  0  0  0  0  0  0  0  0
   -0.8537   -0.1952    1.9959 H   0  0  0  0  0  0  0  0  0  0  0  0
   -0.5818   -3.6668    0.5059 H   0  0  0  0  0  0  0  0  0  0  0  0
    1.6581   -4.0369   -0.6857 H   0  0  0  0  0  0  0  0  0  0  0  0
    0.8770    1.1361    0.5480 H   0  0  0  0  0  0  0  0  0  0  0  0
    4.9497    1.9881   -1.3282 H   0  0  0  0  0  0  0  0  0  0  0  0
    4.0322    3.5372   -1.6064 H   0  0  0  0  0  0  0  0  0  0  0  0
    4.8169    3.1988   -0.0558 H   0  0  0  0  0  0  0  0  0  0  0  0
    4.5005    0.0648   -1.4445 H   0  0  0  0  0  0  0  0  0  0  0  0
    3.7841   -2.2906   -1.4741 H   0  0  0  0  0  0  0  0  0  0  0  0
  1  2  1  0
  2  3  2  0
  2  4  1  0
  4  5  1  0
  5  6  1  0
  6  7  1  0
  7  8  2  0
  8  9  1  0
  9 10  1  0
 10 11  1  0
 11 12  2  0
 12 13  1  0
 13 14  1  0
 14 15  1  0
 13 16  2  0
 16 17  1  0
 11  7  1  0
 17 10  2  0
  1 18  1  0
  1 19  1  0
  1 20  1  0
  4 21  1  0
  5 22  1  0
  5 23  1  0
  6 24  1  0
  6 25  1  0
  8 26  1  0
  9 27  1  0
 12 28  1  0
 15 29  1  0
 15 30  1  0
 15 31  1  0
 16 32  1  0
 17 33  1  0
M  END
>  <coordinate_phase>  (17) 
ETKDG_before_MMFF

>  <molecule_id>  (17) 
melatonin

>  <seed>  (17) 
20260928

>  <conformer_id>  (17) 
16

$$$$
melatonin_20260928_17
     RDKit          3D

 33 34  0  0  0  0  0  0  0  0999 V2000
   -5.5606    0.9445    0.1274 C   0  0  0  0  0  0  0  0  0  0  0  0
   -4.3051    0.1706   -0.0756 C   0  0  0  0  0  0  0  0  0  0  0  0
   -4.3351   -1.0436    0.2223 O   0  0  0  0  0  0  0  0  0  0  0  0
   -3.1084    0.7964   -0.5927 N   0  0  0  0  0  0  0  0  0  0  0  0
   -1.8811    0.0071   -0.7809 C   0  0  0  0  0  0  0  0  0  0  0  0
   -1.4034   -0.5837    0.5197 C   0  0  0  0  0  0  0  0  0  0  0  0
   -0.1559   -1.3654    0.2864 C   0  0  0  0  0  0  0  0  0  0  0  0
    0.0204   -2.7306    0.2103 C   0  0  0  0  0  0  0  0  0  0  0  0
    1.3264   -2.9695   -0.0146 N   0  0  0  0  0  0  0  0  0  0  0  0
    1.9872   -1.7978   -0.0841 C   0  0  0  0  0  0  0  0  0  0  0  0
    1.0754   -0.7667    0.1025 C   0  0  0  0  0  0  0  0  0  0  0  0
    1.4722    0.5598    0.0836 C   0  0  0  0  0  0  0  0  0  0  0  0
    2.7850    0.9113   -0.1206 C   0  0  0  0  0  0  0  0  0  0  0  0
    3.1117    2.2417   -0.1280 O   0  0  0  0  0  0  0  0  0  0  0  0
    4.4419    2.6838   -0.3310 C   0  0  0  0  0  0  0  0  0  0  0  0
    3.6912   -0.1054   -0.3061 C   0  0  0  0  0  0  0  0  0  0  0  0
    3.3284   -1.4502   -0.2935 C   0  0  0  0  0  0  0  0  0  0  0  0
   -5.6875    1.0312    1.2467 H   0  0  0  0  0  0  0  0  0  0  0  0
   -5.5251    1.9566   -0.2679 H   0  0  0  0  0  0  0  0  0  0  0  0
   -6.4492    0.3928   -0.2123 H   0  0  0  0  0  0  0  0  0  0  0  0
   -3.1452    1.8113   -0.8246 H   0  0  0  0  0  0  0  0  0  0  0  0
   -1.1348    0.6837   -1.2229 H   0  0  0  0  0  0  0  0  0  0  0  0
   -2.0687   -0.8071   -1.5083 H   0  0  0  0  0  0  0  0  0  0  0  0
   -2.1567   -1.2124    1.0027 H   0  0  0  0  0  0  0  0  0  0  0  0
   -1.1739    0.3101    1.1727 H   0  0  0  0  0  0  0  0  0  0  0  0
   -0.7663   -3.4701    0.3146 H   0  0  0  0  0  0  0  0  0  0  0  0
    1.7467   -3.9191   -0.1168 H   0  0  0  0  0  0  0  0  0  0  0  0
    0.7436    1.3239    0.2306 H   0  0  0  0  0  0  0  0  0  0  0  0
    4.4420    3.8121   -0.3842 H   0  0  0  0  0  0  0  0  0  0  0  0
    4.9167    2.2204   -1.2193 H   0  0  0  0  0  0  0  0  0  0  0  0
    4.9888    2.4312    0.6015 H   0  0  0  0  0  0  0  0  0  0  0  0
    4.7201    0.1631   -0.4666 H   0  0  0  0  0  0  0  0  0  0  0  0
    4.0594   -2.2301   -0.4410 H   0  0  0  0  0  0  0  0  0  0  0  0
  1  2  1  0
  2  3  2  0
  2  4  1  0
  4  5  1  0
  5  6  1  0
  6  7  1  0
  7  8  2  0
  8  9  1  0
  9 10  1  0
 10 11  1  0
 11 12  2  0
 12 13  1  0
 13 14  1  0
 14 15  1  0
 13 16  2  0
 16 17  1  0
 11  7  1  0
 17 10  2  0
  1 18  1  0
  1 19  1  0
  1 20  1  0
  4 21  1  0
  5 22  1  0
  5 23  1  0
  6 24  1  0
  6 25  1  0
  8 26  1  0
  9 27  1  0
 12 28  1  0
 15 29  1  0
 15 30  1  0
 15 31  1  0
 16 32  1  0
 17 33  1  0
M  END
>  <coordinate_phase>  (18) 
ETKDG_before_MMFF

>  <molecule_id>  (18) 
melatonin

>  <seed>  (18) 
20260928

>  <conformer_id>  (18) 
17

$$$$
melatonin_20260928_18
     RDKit          3D

 33 34  0  0  0  0  0  0  0  0999 V2000
    5.2274    0.9105   -0.4935 C   0  0  0  0  0  0  0  0  0  0  0  0
    4.0218    0.0813   -0.1387 C   0  0  0  0  0  0  0  0  0  0  0  0
    4.0875   -1.1604   -0.3205 O   0  0  0  0  0  0  0  0  0  0  0  0
    2.8611    0.7030    0.3817 N   0  0  0  0  0  0  0  0  0  0  0  0
    1.6551   -0.0097    0.7490 C   0  0  0  0  0  0  0  0  0  0  0  0
    1.1329   -0.7019   -0.4818 C   0  0  0  0  0  0  0  0  0  0  0  0
   -0.1178   -1.4655   -0.2056 C   0  0  0  0  0  0  0  0  0  0  0  0
   -0.2628   -2.8306   -0.0664 C   0  0  0  0  0  0  0  0  0  0  0  0
   -1.5752   -3.0766    0.1748 N   0  0  0  0  0  0  0  0  0  0  0  0
   -2.2338   -1.9004    0.1867 C   0  0  0  0  0  0  0  0  0  0  0  0
   -1.3557   -0.8588   -0.0484 C   0  0  0  0  0  0  0  0  0  0  0  0
   -1.7862    0.4656   -0.0874 C   0  0  0  0  0  0  0  0  0  0  0  0
   -3.1087    0.7963    0.1067 C   0  0  0  0  0  0  0  0  0  0  0  0
   -3.6093    2.0756    0.0828 O   0  0  0  0  0  0  0  0  0  0  0  0
   -2.7370    3.1528   -0.1543 C   0  0  0  0  0  0  0  0  0  0  0  0
   -3.9960   -0.2408    0.3429 C   0  0  0  0  0  0  0  0  0  0  0  0
   -3.5755   -1.5528    0.3826 C   0  0  0  0  0  0  0  0  0  0  0  0
    4.8742    1.9343   -0.7037 H   0  0  0  0  0  0  0  0  0  0  0  0
    5.8868    0.8729    0.3841 H   0  0  0  0  0  0  0  0  0  0  0  0
    5.6884    0.4198   -1.3721 H   0  0  0  0  0  0  0  0  0  0  0  0
    2.9230    1.7598    0.4926 H   0  0  0  0  0  0  0  0  0  0  0  0
    0.8916    0.7413    1.0347 H   0  0  0  0  0  0  0  0  0  0  0  0
    1.8512   -0.7389    1.5595 H   0  0  0  0  0  0  0  0  0  0  0  0
    0.8456    0.1142   -1.1945 H   0  0  0  0  0  0  0  0  0  0  0  0
    1.8787   -1.2986   -1.0127 H   0  0  0  0  0  0  0  0  0  0  0  0
    0.5126   -3.5823   -0.1334 H   0  0  0  0  0  0  0  0  0  0  0  0
   -2.0328   -4.0114    0.3305 H   0  0  0  0  0  0  0  0  0  0  0  0
   -1.0639    1.2454   -0.2728 H   0  0  0  0  0  0  0  0  0  0  0  0
   -3.3387    4.0470   -0.4668 H   0  0  0  0  0  0  0  0  0  0  0  0
   -1.9563    2.9510   -0.9100 H   0  0  0  0  0  0  0  0  0  0  0  0
   -2.2298    3.4646    0.7846 H   0  0  0  0  0  0  0  0  0  0  0  0
   -5.0540   -0.0046    0.5006 H   0  0  0  0  0  0  0  0  0  0  0  0
   -4.3043   -2.3022    0.5686 H   0  0  0  0  0  0  0  0  0  0  0  0
  1  2  1  0
  2  3  2  0
  2  4  1  0
  4  5  1  0
  5  6  1  0
  6  7  1  0
  7  8  2  0
  8  9  1  0
  9 10  1  0
 10 11  1  0
 11 12  2  0
 12 13  1  0
 13 14  1  0
 14 15  1  0
 13 16  2  0
 16 17  1  0
 11  7  1  0
 17 10  2  0
  1 18  1  0
  1 19  1  0
  1 20  1  0
  4 21  1  0
  5 22  1  0
  5 23  1  0
  6 24  1  0
  6 25  1  0
  8 26  1  0
  9 27  1  0
 12 28  1  0
 15 29  1  0
 15 30  1  0
 15 31  1  0
 16 32  1  0
 17 33  1  0
M  END
>  <coordinate_phase>  (19) 
ETKDG_before_MMFF

>  <molecule_id>  (19) 
melatonin

>  <seed>  (19) 
20260928

>  <conformer_id>  (19) 
18

$$$$
melatonin_20260928_19
     RDKit          3D

 33 34  0  0  0  0  0  0  0  0999 V2000
    5.2336    1.6288   -0.1921 C   0  0  0  0  0  0  0  0  0  0  0  0
    3.9694    1.0099   -0.7331 C   0  0  0  0  0  0  0  0  0  0  0  0
    3.7422    1.0581   -1.9834 O   0  0  0  0  0  0  0  0  0  0  0  0
    3.0564    0.3815    0.1712 N   0  0  0  0  0  0  0  0  0  0  0  0
    1.8224   -0.2402   -0.2682 C   0  0  0  0  0  0  0  0  0  0  0  0
    1.1518   -0.7914    0.9727 C   0  0  0  0  0  0  0  0  0  0  0  0
   -0.0963   -1.4561    0.5780 C   0  0  0  0  0  0  0  0  0  0  0  0
   -0.2319   -2.8277    0.4667 C   0  0  0  0  0  0  0  0  0  0  0  0
   -1.4586   -3.1704    0.0828 N   0  0  0  0  0  0  0  0  0  0  0  0
   -2.1473   -2.0074   -0.0622 C   0  0  0  0  0  0  0  0  0  0  0  0
   -1.3298   -0.9477    0.2370 C   0  0  0  0  0  0  0  0  0  0  0  0
   -1.8016    0.3425    0.1680 C   0  0  0  0  0  0  0  0  0  0  0  0
   -3.1146    0.5355   -0.2080 C   0  0  0  0  0  0  0  0  0  0  0  0
   -3.7077    1.7779   -0.3126 O   0  0  0  0  0  0  0  0  0  0  0  0
   -3.1058    3.0128   -0.0611 C   0  0  0  0  0  0  0  0  0  0  0  0
   -3.9400   -0.5553   -0.5111 C   0  0  0  0  0  0  0  0  0  0  0  0
   -3.4552   -1.8455   -0.4387 C   0  0  0  0  0  0  0  0  0  0  0  0
    4.9808    2.6990   -0.0177 H   0  0  0  0  0  0  0  0  0  0  0  0
    5.4333    1.1444    0.7942 H   0  0  0  0  0  0  0  0  0  0  0  0
    6.0615    1.5503   -0.8974 H   0  0  0  0  0  0  0  0  0  0  0  0
    3.3494    0.4010    1.1929 H   0  0  0  0  0  0  0  0  0  0  0  0
    1.9992   -1.0997   -0.9497 H   0  0  0  0  0  0  0  0  0  0  0  0
    1.1193    0.4433   -0.7550 H   0  0  0  0  0  0  0  0  0  0  0  0
    1.8607   -1.5215    1.4162 H   0  0  0  0  0  0  0  0  0  0  0  0
    0.9703   -0.0028    1.7199 H   0  0  0  0  0  0  0  0  0  0  0  0
    0.5717   -3.5471    0.6696 H   0  0  0  0  0  0  0  0  0  0  0  0
   -1.7717   -4.1445   -0.0605 H   0  0  0  0  0  0  0  0  0  0  0  0
   -1.1603    1.1515    0.4013 H   0  0  0  0  0  0  0  0  0  0  0  0
   -2.3759    2.9655    0.7678 H   0  0  0  0  0  0  0  0  0  0  0  0
   -2.6295    3.4359   -0.9583 H   0  0  0  0  0  0  0  0  0  0  0  0
   -3.9383    3.7050    0.2488 H   0  0  0  0  0  0  0  0  0  0  0  0
   -4.9625   -0.4006   -0.8044 H   0  0  0  0  0  0  0  0  0  0  0  0
   -4.0950   -2.6850   -0.6735 H   0  0  0  0  0  0  0  0  0  0  0  0
  1  2  1  0
  2  3  2  0
  2  4  1  0
  4  5  1  0
  5  6  1  0
  6  7  1  0
  7  8  2  0
  8  9  1  0
  9 10  1  0
 10 11  1  0
 11 12  2  0
 12 13  1  0
 13 14  1  0
 14 15  1  0
 13 16  2  0
 16 17  1  0
 11  7  1  0
 17 10  2  0
  1 18  1  0
  1 19  1  0
  1 20  1  0
  4 21  1  0
  5 22  1  0
  5 23  1  0
  6 24  1  0
  6 25  1  0
  8 26  1  0
  9 27  1  0
 12 28  1  0
 15 29  1  0
 15 30  1  0
 15 31  1  0
 16 32  1  0
 17 33  1  0
M  END
>  <coordinate_phase>  (20) 
ETKDG_before_MMFF

>  <molecule_id>  (20) 
melatonin

>  <seed>  (20) 
20260928

>  <conformer_id>  (20) 
19

$$$$
melatonin_20260929_20
     RDKit          3D

 33 34  0  0  0  0  0  0  0  0999 V2000
    4.4668    2.1587    0.8871 C   0  0  0  0  0  0  0  0  0  0  0  0
    3.1769    1.4326    0.6255 C   0  0  0  0  0  0  0  0  0  0  0  0
    2.1838    2.1609    0.3725 O   0  0  0  0  0  0  0  0  0  0  0  0
    3.1088    0.0125    0.6670 N   0  0  0  0  0  0  0  0  0  0  0  0
    1.8697   -0.7168    0.4162 C   0  0  0  0  0  0  0  0  0  0  0  0
    1.3165   -0.4470   -0.9683 C   0  0  0  0  0  0  0  0  0  0  0  0
    0.0397   -1.2020   -1.2204 C   0  0  0  0  0  0  0  0  0  0  0  0
   -0.0769   -2.3508   -2.0086 C   0  0  0  0  0  0  0  0  0  0  0  0
   -1.3860   -2.7031   -1.9702 N   0  0  0  0  0  0  0  0  0  0  0  0
   -2.0651   -1.8265   -1.1997 C   0  0  0  0  0  0  0  0  0  0  0  0
   -1.1980   -0.8664   -0.7102 C   0  0  0  0  0  0  0  0  0  0  0  0
   -1.6446    0.1656    0.1193 C   0  0  0  0  0  0  0  0  0  0  0  0
   -2.9818    0.2213    0.4529 C   0  0  0  0  0  0  0  0  0  0  0  0
   -3.5247    1.2050    1.2697 O   0  0  0  0  0  0  0  0  0  0  0  0
   -2.6422    2.1853    1.7712 C   0  0  0  0  0  0  0  0  0  0  0  0
   -3.8573   -0.7401   -0.0359 C   0  0  0  0  0  0  0  0  0  0  0  0
   -3.3968   -1.7490   -0.8519 C   0  0  0  0  0  0  0  0  0  0  0  0
    5.3363    1.4700    0.8404 H   0  0  0  0  0  0  0  0  0  0  0  0
    4.4735    2.5972    1.9124 H   0  0  0  0  0  0  0  0  0  0  0  0
    4.6259    2.9948    0.1621 H   0  0  0  0  0  0  0  0  0  0  0  0
    4.0116   -0.4821    0.8910 H   0  0  0  0  0  0  0  0  0  0  0  0
    2.0850   -1.7853    0.5312 H   0  0  0  0  0  0  0  0  0  0  0  0
    1.1507   -0.4314    1.2087 H   0  0  0  0  0  0  0  0  0  0  0  0
    1.0997    0.6420   -1.0264 H   0  0  0  0  0  0  0  0  0  0  0  0
    2.0713   -0.6735   -1.7369 H   0  0  0  0  0  0  0  0  0  0  0  0
    0.7394   -2.8479   -2.5409 H   0  0  0  0  0  0  0  0  0  0  0  0
   -1.8114   -3.5203   -2.4547 H   0  0  0  0  0  0  0  0  0  0  0  0
   -0.9628    0.9136    0.4993 H   0  0  0  0  0  0  0  0  0  0  0  0
   -1.7569    1.7068    2.1994 H   0  0  0  0  0  0  0  0  0  0  0  0
   -3.1445    2.8884    2.4664 H   0  0  0  0  0  0  0  0  0  0  0  0
   -2.2868    2.7852    0.8852 H   0  0  0  0  0  0  0  0  0  0  0  0
   -4.9094   -0.7183    0.2116 H   0  0  0  0  0  0  0  0  0  0  0  0
   -4.1106   -2.4792   -1.2127 H   0  0  0  0  0  0  0  0  0  0  0  0
  1  2  1  0
  2  3  2  0
  2  4  1  0
  4  5  1  0
  5  6  1  0
  6  7  1  0
  7  8  2  0
  8  9  1  0
  9 10  1  0
 10 11  1  0
 11 12  2  0
 12 13  1  0
 13 14  1  0
 14 15  1  0
 13 16  2  0
 16 17  1  0
 11  7  1  0
 17 10  2  0
  1 18  1  0
  1 19  1  0
  1 20  1  0
  4 21  1  0
  5 22  1  0
  5 23  1  0
  6 24  1  0
  6 25  1  0
  8 26  1  0
  9 27  1  0
 12 28  1  0
 15 29  1  0
 15 30  1  0
 15 31  1  0
 16 32  1  0
 17 33  1  0
M  END
>  <coordinate_phase>  (21) 
ETKDG_before_MMFF

>  <molecule_id>  (21) 
melatonin

>  <seed>  (21) 
20260929

>  <conformer_id>  (21) 
20

$$$$
melatonin_20260929_21
     RDKit          3D

 33 34  0  0  0  0  0  0  0  0999 V2000
    5.3498    0.3472    1.7833 C   0  0  0  0  0  0  0  0  0  0  0  0
    4.1415    0.4328    0.9002 C   0  0  0  0  0  0  0  0  0  0  0  0
    3.4708    1.4816    0.9712 O   0  0  0  0  0  0  0  0  0  0  0  0
    3.7935   -0.6540    0.0227 N   0  0  0  0  0  0  0  0  0  0  0  0
    2.6184   -0.5501   -0.8244 C   0  0  0  0  0  0  0  0  0  0  0  0
    1.3556   -0.3657   -0.0481 C   0  0  0  0  0  0  0  0  0  0  0  0
    0.2335   -0.2734   -1.0172 C   0  0  0  0  0  0  0  0  0  0  0  0
    0.2647   -0.3331   -2.3946 C   0  0  0  0  0  0  0  0  0  0  0  0
   -1.0019   -0.2028   -2.8417 N   0  0  0  0  0  0  0  0  0  0  0  0
   -1.8553   -0.0606   -1.8084 C   0  0  0  0  0  0  0  0  0  0  0  0
   -1.0883   -0.1039   -0.6599 C   0  0  0  0  0  0  0  0  0  0  0  0
   -1.7162    0.0194    0.5628 C   0  0  0  0  0  0  0  0  0  0  0  0
   -3.0869    0.1843    0.6669 C   0  0  0  0  0  0  0  0  0  0  0  0
   -3.6052    0.2972    1.9468 O   0  0  0  0  0  0  0  0  0  0  0  0
   -4.9837    0.4690    2.2057 C   0  0  0  0  0  0  0  0  0  0  0  0
   -3.8600    0.2287   -0.4693 C   0  0  0  0  0  0  0  0  0  0  0  0
   -3.2137    0.1036   -1.6839 C   0  0  0  0  0  0  0  0  0  0  0  0
    6.0734   -0.4000    1.4473 H   0  0  0  0  0  0  0  0  0  0  0  0
    5.8734    1.3264    1.8366 H   0  0  0  0  0  0  0  0  0  0  0  0
    5.0335    0.1125    2.8172 H   0  0  0  0  0  0  0  0  0  0  0  0
    4.4197   -1.4897    0.0368 H   0  0  0  0  0  0  0  0  0  0  0  0
    2.5299   -1.5002   -1.3928 H   0  0  0  0  0  0  0  0  0  0  0  0
    2.7375    0.2544   -1.5856 H   0  0  0  0  0  0  0  0  0  0  0  0
    1.3375    0.5289    0.5817 H   0  0  0  0  0  0  0  0  0  0  0  0
    1.1859   -1.2891    0.5389 H   0  0  0  0  0  0  0  0  0  0  0  0
    1.1498   -0.4611   -2.9946 H   0  0  0  0  0  0  0  0  0  0  0  0
   -1.3319   -0.2044   -3.8339 H   0  0  0  0  0  0  0  0  0  0  0  0
   -1.0849   -0.0182    1.4534 H   0  0  0  0  0  0  0  0  0  0  0  0
   -5.2426    1.5106    1.9103 H   0  0  0  0  0  0  0  0  0  0  0  0
   -5.5547   -0.2012    1.5358 H   0  0  0  0  0  0  0  0  0  0  0  0
   -5.2234    0.3171    3.2663 H   0  0  0  0  0  0  0  0  0  0  0  0
   -4.9143    0.3570   -0.3499 H   0  0  0  0  0  0  0  0  0  0  0  0
   -3.8055    0.1367   -2.5796 H   0  0  0  0  0  0  0  0  0  0  0  0
  1  2  1  0
  2  3  2  0
  2  4  1  0
  4  5  1  0
  5  6  1  0
  6  7  1  0
  7  8  2  0
  8  9  1  0
  9 10  1  0
 10 11  1  0
 11 12  2  0
 12 13  1  0
 13 14  1  0
 14 15  1  0
 13 16  2  0
 16 17  1  0
 11  7  1  0
 17 10  2  0
  1 18  1  0
  1 19  1  0
  1 20  1  0
  4 21  1  0
  5 22  1  0
  5 23  1  0
  6 24  1  0
  6 25  1  0
  8 26  1  0
  9 27  1  0
 12 28  1  0
 15 29  1  0
 15 30  1  0
 15 31  1  0
 16 32  1  0
 17 33  1  0
M  END
>  <coordinate_phase>  (22) 
ETKDG_before_MMFF

>  <molecule_id>  (22) 
melatonin

>  <seed>  (22) 
20260929

>  <conformer_id>  (22) 
21

$$$$
melatonin_20260929_22
     RDKit          3D

 33 34  0  0  0  0  0  0  0  0999 V2000
   -4.6009    0.9266   -1.2975 C   0  0  0  0  0  0  0  0  0  0  0  0
   -3.6433   -0.1980   -1.4795 C   0  0  0  0  0  0  0  0  0  0  0  0
   -3.5237   -0.8395   -2.5534 O   0  0  0  0  0  0  0  0  0  0  0  0
   -2.8387   -0.5312   -0.3473 N   0  0  0  0  0  0  0  0  0  0  0  0
   -1.8631   -1.5880   -0.3417 C   0  0  0  0  0  0  0  0  0  0  0  0
   -1.1558   -1.7227    0.9838 C   0  0  0  0  0  0  0  0  0  0  0  0
   -0.4282   -0.4653    1.3361 C   0  0  0  0  0  0  0  0  0  0  0  0
   -0.7657    0.5165    2.2411 C   0  0  0  0  0  0  0  0  0  0  0  0
    0.2093    1.4667    2.2064 N   0  0  0  0  0  0  0  0  0  0  0  0
    1.1545    1.0970    1.2936 C   0  0  0  0  0  0  0  0  0  0  0  0
    0.7648   -0.1195    0.7378 C   0  0  0  0  0  0  0  0  0  0  0  0
    1.5692   -0.7226   -0.2333 C   0  0  0  0  0  0  0  0  0  0  0  0
    2.7565   -0.1207   -0.6518 C   0  0  0  0  0  0  0  0  0  0  0  0
    3.5520   -0.7138   -1.6106 O   0  0  0  0  0  0  0  0  0  0  0  0
    4.7435   -0.1353   -2.0485 C   0  0  0  0  0  0  0  0  0  0  0  0
    3.1413    1.0848   -0.1003 C   0  0  0  0  0  0  0  0  0  0  0  0
    2.3340    1.6834    0.8699 C   0  0  0  0  0  0  0  0  0  0  0  0
   -5.4915    0.5367   -0.7540 H   0  0  0  0  0  0  0  0  0  0  0  0
   -4.8762    1.3296   -2.2907 H   0  0  0  0  0  0  0  0  0  0  0  0
   -4.0783    1.7105   -0.7343 H   0  0  0  0  0  0  0  0  0  0  0  0
   -2.9435    0.0144    0.5575 H   0  0  0  0  0  0  0  0  0  0  0  0
   -1.1437   -1.4333   -1.1736 H   0  0  0  0  0  0  0  0  0  0  0  0
   -2.3955   -2.5425   -0.5293 H   0  0  0  0  0  0  0  0  0  0  0  0
   -1.8699   -1.9949    1.7873 H   0  0  0  0  0  0  0  0  0  0  0  0
   -0.4764   -2.5961    0.9004 H   0  0  0  0  0  0  0  0  0  0  0  0
   -1.6639    0.5049    2.8617 H   0  0  0  0  0  0  0  0  0  0  0  0
    0.2524    2.3360    2.7690 H   0  0  0  0  0  0  0  0  0  0  0  0
    1.2797   -1.6760   -0.6784 H   0  0  0  0  0  0  0  0  0  0  0  0
    5.2597   -0.8254   -2.7521 H   0  0  0  0  0  0  0  0  0  0  0  0
    5.4756   -0.0016   -1.2077 H   0  0  0  0  0  0  0  0  0  0  0  0
    4.5561    0.8269   -2.5662 H   0  0  0  0  0  0  0  0  0  0  0  0
    4.0426    1.5570   -0.4084 H   0  0  0  0  0  0  0  0  0  0  0  0
    2.6674    2.6355    1.2837 H   0  0  0  0  0  0  0  0  0  0  0  0
  1  2  1  0
  2  3  2  0
  2  4  1  0
  4  5  1  0
  5  6  1  0
  6  7  1  0
  7  8  2  0
  8  9  1  0
  9 10  1  0
 10 11  1  0
 11 12  2  0
 12 13  1  0
 13 14  1  0
 14 15  1  0
 13 16  2  0
 16 17  1  0
 11  7  1  0
 17 10  2  0
  1 18  1  0
  1 19  1  0
  1 20  1  0
  4 21  1  0
  5 22  1  0
  5 23  1  0
  6 24  1  0
  6 25  1  0
  8 26  1  0
  9 27  1  0
 12 28  1  0
 15 29  1  0
 15 30  1  0
 15 31  1  0
 16 32  1  0
 17 33  1  0
M  END
>  <coordinate_phase>  (23) 
ETKDG_before_MMFF

>  <molecule_id>  (23) 
melatonin

>  <seed>  (23) 
20260929

>  <conformer_id>  (23) 
22

$$$$
melatonin_20260929_23
     RDKit          3D

 33 34  0  0  0  0  0  0  0  0999 V2000
    5.9493    1.3038    0.3753 C   0  0  0  0  0  0  0  0  0  0  0  0
    4.9482    0.2089    0.3106 C   0  0  0  0  0  0  0  0  0  0  0  0
    5.2993   -1.0140    0.2849 O   0  0  0  0  0  0  0  0  0  0  0  0
    3.5526    0.4942    0.2749 N   0  0  0  0  0  0  0  0  0  0  0  0
    2.5743   -0.5886    0.2112 C   0  0  0  0  0  0  0  0  0  0  0  0
    1.2068    0.0418    0.1868 C   0  0  0  0  0  0  0  0  0  0  0  0
    0.1078   -0.9337    0.1226 C   0  0  0  0  0  0  0  0  0  0  0  0
    0.1407   -2.3145    0.0823 C   0  0  0  0  0  0  0  0  0  0  0  0
   -1.1163   -2.7983    0.0279 N   0  0  0  0  0  0  0  0  0  0  0  0
   -1.9707   -1.7501    0.0321 C   0  0  0  0  0  0  0  0  0  0  0  0
   -1.2418   -0.5784    0.0903 C   0  0  0  0  0  0  0  0  0  0  0  0
   -1.8992    0.6317    0.1056 C   0  0  0  0  0  0  0  0  0  0  0  0
   -3.2741    0.7323    0.0649 C   0  0  0  0  0  0  0  0  0  0  0  0
   -3.8284    1.9932    0.0850 O   0  0  0  0  0  0  0  0  0  0  0  0
   -5.1906    2.2952    0.0507 C   0  0  0  0  0  0  0  0  0  0  0  0
   -4.0028   -0.4358    0.0068 C   0  0  0  0  0  0  0  0  0  0  0  0
   -3.3625   -1.6628   -0.0096 C   0  0  0  0  0  0  0  0  0  0  0  0
    6.2398    1.5509   -0.6698 H   0  0  0  0  0  0  0  0  0  0  0  0
    6.8247    1.0312    1.0023 H   0  0  0  0  0  0  0  0  0  0  0  0
    5.4507    2.1918    0.8233 H   0  0  0  0  0  0  0  0  0  0  0  0
    3.2687    1.5067    0.2963 H   0  0  0  0  0  0  0  0  0  0  0  0
    2.8103   -1.1670   -0.6790 H   0  0  0  0  0  0  0  0  0  0  0  0
    2.6593   -1.2610    1.0905 H   0  0  0  0  0  0  0  0  0  0  0  0
    1.1231    0.7523    1.0349 H   0  0  0  0  0  0  0  0  0  0  0  0
    1.1340    0.6918   -0.7282 H   0  0  0  0  0  0  0  0  0  0  0  0
    1.0580   -2.9157    0.0935 H   0  0  0  0  0  0  0  0  0  0  0  0
   -1.4435   -3.7900   -0.0122 H   0  0  0  0  0  0  0  0  0  0  0  0
   -1.2707    1.5287    0.1524 H   0  0  0  0  0  0  0  0  0  0  0  0
   -5.8225    1.4812   -0.3604 H   0  0  0  0  0  0  0  0  0  0  0  0
   -5.5278    2.5399    1.0978 H   0  0  0  0  0  0  0  0  0  0  0  0
   -5.4111    3.2098   -0.5531 H   0  0  0  0  0  0  0  0  0  0  0  0
   -5.0725   -0.3863   -0.0258 H   0  0  0  0  0  0  0  0  0  0  0  0
   -3.9134   -2.5889   -0.0548 H   0  0  0  0  0  0  0  0  0  0  0  0
  1  2  1  0
  2  3  2  0
  2  4  1  0
  4  5  1  0
  5  6  1  0
  6  7  1  0
  7  8  2  0
  8  9  1  0
  9 10  1  0
 10 11  1  0
 11 12  2  0
 12 13  1  0
 13 14  1  0
 14 15  1  0
 13 16  2  0
 16 17  1  0
 11  7  1  0
 17 10  2  0
  1 18  1  0
  1 19  1  0
  1 20  1  0
  4 21  1  0
  5 22  1  0
  5 23  1  0
  6 24  1  0
  6 25  1  0
  8 26  1  0
  9 27  1  0
 12 28  1  0
 15 29  1  0
 15 30  1  0
 15 31  1  0
 16 32  1  0
 17 33  1  0
M  END
>  <coordinate_phase>  (24) 
ETKDG_before_MMFF

>  <molecule_id>  (24) 
melatonin

>  <seed>  (24) 
20260929

>  <conformer_id>  (24) 
23

$$$$
melatonin_20260929_24
     RDKit          3D

 33 34  0  0  0  0  0  0  0  0999 V2000
    4.2504   -0.1539   -1.4063 C   0  0  0  0  0  0  0  0  0  0  0  0
    2.9584    0.2269   -0.7226 C   0  0  0  0  0  0  0  0  0  0  0  0
    1.9242   -0.2591   -1.2258 O   0  0  0  0  0  0  0  0  0  0  0  0
    2.9894    1.0683    0.3899 N   0  0  0  0  0  0  0  0  0  0  0  0
    1.9119    1.5416    1.1967 C   0  0  0  0  0  0  0  0  0  0  0  0
    1.2342    0.4700    1.9680 C   0  0  0  0  0  0  0  0  0  0  0  0
    0.5841   -0.6290    1.2875 C   0  0  0  0  0  0  0  0  0  0  0  0
    0.9360   -1.9742    1.1575 C   0  0  0  0  0  0  0  0  0  0  0  0
   -0.0253   -2.6033    0.4602 N   0  0  0  0  0  0  0  0  0  0  0  0
   -1.0060   -1.7423    0.1164 C   0  0  0  0  0  0  0  0  0  0  0  0
   -0.6442   -0.5222    0.6193 C   0  0  0  0  0  0  0  0  0  0  0  0
   -1.4961    0.5511    0.4031 C   0  0  0  0  0  0  0  0  0  0  0  0
   -2.6872    0.4188   -0.3000 C   0  0  0  0  0  0  0  0  0  0  0  0
   -3.4515    1.5640   -0.4493 O   0  0  0  0  0  0  0  0  0  0  0  0
   -4.6730    1.6573   -1.1139 C   0  0  0  0  0  0  0  0  0  0  0  0
   -3.0384   -0.8128   -0.8000 C   0  0  0  0  0  0  0  0  0  0  0  0
   -2.1883   -1.8844   -0.5842 C   0  0  0  0  0  0  0  0  0  0  0  0
    5.0799   -0.0468   -0.6906 H   0  0  0  0  0  0  0  0  0  0  0  0
    4.3818    0.4976   -2.3044 H   0  0  0  0  0  0  0  0  0  0  0  0
    4.1479   -1.2075   -1.7290 H   0  0  0  0  0  0  0  0  0  0  0  0
    3.9657    1.4101    0.6830 H   0  0  0  0  0  0  0  0  0  0  0  0
    1.1094    2.0289    0.5610 H   0  0  0  0  0  0  0  0  0  0  0  0
    2.2306    2.3777    1.8643 H   0  0  0  0  0  0  0  0  0  0  0  0
    1.9478    0.0244    2.7542 H   0  0  0  0  0  0  0  0  0  0  0  0
    0.4730    0.9821    2.6489 H   0  0  0  0  0  0  0  0  0  0  0  0
    1.8412   -2.4025    1.5645 H   0  0  0  0  0  0  0  0  0  0  0  0
   -0.0724   -3.6159    0.1862 H   0  0  0  0  0  0  0  0  0  0  0  0
   -1.2140    1.5229    0.8019 H   0  0  0  0  0  0  0  0  0  0  0  0
   -4.4886    2.1872   -2.0902 H   0  0  0  0  0  0  0  0  0  0  0  0
   -5.1732    0.7169   -1.3512 H   0  0  0  0  0  0  0  0  0  0  0  0
   -5.3669    2.3617   -0.5678 H   0  0  0  0  0  0  0  0  0  0  0  0
   -3.9691   -0.9229   -1.3513 H   0  0  0  0  0  0  0  0  0  0  0  0
   -2.4715   -2.8308   -0.9764 H   0  0  0  0  0  0  0  0  0  0  0  0
  1  2  1  0
  2  3  2  0
  2  4  1  0
  4  5  1  0
  5  6  1  0
  6  7  1  0
  7  8  2  0
  8  9  1  0
  9 10  1  0
 10 11  1  0
 11 12  2  0
 12 13  1  0
 13 14  1  0
 14 15  1  0
 13 16  2  0
 16 17  1  0
 11  7  1  0
 17 10  2  0
  1 18  1  0
  1 19  1  0
  1 20  1  0
  4 21  1  0
  5 22  1  0
  5 23  1  0
  6 24  1  0
  6 25  1  0
  8 26  1  0
  9 27  1  0
 12 28  1  0
 15 29  1  0
 15 30  1  0
 15 31  1  0
 16 32  1  0
 17 33  1  0
M  END
>  <coordinate_phase>  (25) 
ETKDG_before_MMFF

>  <molecule_id>  (25) 
melatonin

>  <seed>  (25) 
20260929

>  <conformer_id>  (25) 
24

$$$$
melatonin_20260929_25
     RDKit          3D

 33 34  0  0  0  0  0  0  0  0999 V2000
   -5.5923    0.9677   -0.0901 C   0  0  0  0  0  0  0  0  0  0  0  0
   -4.3516    0.1125   -0.0930 C   0  0  0  0  0  0  0  0  0  0  0  0
   -4.3817   -0.9228   -0.7682 O   0  0  0  0  0  0  0  0  0  0  0  0
   -3.2250    0.5393    0.6733 N   0  0  0  0  0  0  0  0  0  0  0  0
   -1.9860   -0.2092    0.7377 C   0  0  0  0  0  0  0  0  0  0  0  0
   -1.4012   -0.3269   -0.6309 C   0  0  0  0  0  0  0  0  0  0  0  0
   -0.1132   -1.0927   -0.6227 C   0  0  0  0  0  0  0  0  0  0  0  0
    0.0835   -2.3718   -1.0231 C   0  0  0  0  0  0  0  0  0  0  0  0
    1.3892   -2.6730   -0.8516 N   0  0  0  0  0  0  0  0  0  0  0  0
    2.0423   -1.6213   -0.3503 C   0  0  0  0  0  0  0  0  0  0  0  0
    1.0958   -0.6016   -0.1979 C   0  0  0  0  0  0  0  0  0  0  0  0
    1.5212    0.6107    0.3114 C   0  0  0  0  0  0  0  0  0  0  0  0
    2.8286    0.8583    0.6738 C   0  0  0  0  0  0  0  0  0  0  0  0
    3.1749    2.1013    1.1766 O   0  0  0  0  0  0  0  0  0  0  0  0
    4.5100    2.3699    1.5514 C   0  0  0  0  0  0  0  0  0  0  0  0
    3.7463   -0.1522    0.5188 C   0  0  0  0  0  0  0  0  0  0  0  0
    3.3754   -1.3946    0.0110 C   0  0  0  0  0  0  0  0  0  0  0  0
   -5.7562    1.4166    0.9033 H   0  0  0  0  0  0  0  0  0  0  0  0
   -6.5036    0.3721   -0.3294 H   0  0  0  0  0  0  0  0  0  0  0  0
   -5.5198    1.7812   -0.8306 H   0  0  0  0  0  0  0  0  0  0  0  0
   -3.3421    1.4519    1.2064 H   0  0  0  0  0  0  0  0  0  0  0  0
   -2.2557   -1.1956    1.1726 H   0  0  0  0  0  0  0  0  0  0  0  0
   -1.3349    0.2825    1.4644 H   0  0  0  0  0  0  0  0  0  0  0  0
   -1.2586    0.7000   -1.0395 H   0  0  0  0  0  0  0  0  0  0  0  0
   -2.1275   -0.8294   -1.2975 H   0  0  0  0  0  0  0  0  0  0  0  0
   -0.6667   -3.0280   -1.4077 H   0  0  0  0  0  0  0  0  0  0  0  0
    1.8745   -3.5913   -1.0663 H   0  0  0  0  0  0  0  0  0  0  0  0
    0.7895    1.3949    0.4260 H   0  0  0  0  0  0  0  0  0  0  0  0
    4.7678    1.7472    2.4102 H   0  0  0  0  0  0  0  0  0  0  0  0
    4.6188    3.4639    1.7140 H   0  0  0  0  0  0  0  0  0  0  0  0
    5.1413    2.0263    0.6849 H   0  0  0  0  0  0  0  0  0  0  0  0
    4.7836    0.0164    0.7980 H   0  0  0  0  0  0  0  0  0  0  0  0
    4.0733   -2.2026   -0.1205 H   0  0  0  0  0  0  0  0  0  0  0  0
  1  2  1  0
  2  3  2  0
  2  4  1  0
  4  5  1  0
  5  6  1  0
  6  7  1  0
  7  8  2  0
  8  9  1  0
  9 10  1  0
 10 11  1  0
 11 12  2  0
 12 13  1  0
 13 14  1  0
 14 15  1  0
 13 16  2  0
 16 17  1  0
 11  7  1  0
 17 10  2  0
  1 18  1  0
  1 19  1  0
  1 20  1  0
  4 21  1  0
  5 22  1  0
  5 23  1  0
  6 24  1  0
  6 25  1  0
  8 26  1  0
  9 27  1  0
 12 28  1  0
 15 29  1  0
 15 30  1  0
 15 31  1  0
 16 32  1  0
 17 33  1  0
M  END
>  <coordinate_phase>  (26) 
ETKDG_before_MMFF

>  <molecule_id>  (26) 
melatonin

>  <seed>  (26) 
20260929

>  <conformer_id>  (26) 
25

$$$$
melatonin_20260929_26
     RDKit          3D

 33 34  0  0  0  0  0  0  0  0999 V2000
   -5.5340    1.2511    0.1297 C   0  0  0  0  0  0  0  0  0  0  0  0
   -4.3535    0.3246    0.1305 C   0  0  0  0  0  0  0  0  0  0  0  0
   -4.4241   -0.8144    0.6948 O   0  0  0  0  0  0  0  0  0  0  0  0
   -3.1617    0.7610   -0.5163 N   0  0  0  0  0  0  0  0  0  0  0  0
   -1.9544   -0.0415   -0.5803 C   0  0  0  0  0  0  0  0  0  0  0  0
   -1.4875   -0.3019    0.8241 C   0  0  0  0  0  0  0  0  0  0  0  0
   -0.2418   -1.1311    0.8151 C   0  0  0  0  0  0  0  0  0  0  0  0
   -0.1770   -2.4902    1.0907 C   0  0  0  0  0  0  0  0  0  0  0  0
    1.1354   -2.8390    0.9640 N   0  0  0  0  0  0  0  0  0  0  0  0
    1.8581   -1.7518    0.6257 C   0  0  0  0  0  0  0  0  0  0  0  0
    1.0098   -0.6440    0.5222 C   0  0  0  0  0  0  0  0  0  0  0  0
    1.5376    0.6006    0.1851 C   0  0  0  0  0  0  0  0  0  0  0  0
    2.8935    0.7478   -0.0469 C   0  0  0  0  0  0  0  0  0  0  0  0
    3.3827    1.9984   -0.3788 O   0  0  0  0  0  0  0  0  0  0  0  0
    4.7547    2.2305   -0.6286 C   0  0  0  0  0  0  0  0  0  0  0  0
    3.6931   -0.3687    0.0661 C   0  0  0  0  0  0  0  0  0  0  0  0
    3.2185   -1.6206    0.3961 C   0  0  0  0  0  0  0  0  0  0  0  0
   -5.9482    1.4188   -0.8783 H   0  0  0  0  0  0  0  0  0  0  0  0
   -5.2471    2.2164    0.6209 H   0  0  0  0  0  0  0  0  0  0  0  0
   -6.2829    0.8073    0.8145 H   0  0  0  0  0  0  0  0  0  0  0  0
   -3.1345    1.7100   -0.9764 H   0  0  0  0  0  0  0  0  0  0  0  0
   -1.1715    0.4609   -1.1743 H   0  0  0  0  0  0  0  0  0  0  0  0
   -2.1919   -1.0304   -1.0287 H   0  0  0  0  0  0  0  0  0  0  0  0
   -2.2378   -0.8465    1.4050 H   0  0  0  0  0  0  0  0  0  0  0  0
   -1.2667    0.7046    1.2616 H   0  0  0  0  0  0  0  0  0  0  0  0
   -0.9924   -3.1498    1.3530 H   0  0  0  0  0  0  0  0  0  0  0  0
    1.4943   -3.8305    1.1183 H   0  0  0  0  0  0  0  0  0  0  0  0
    0.8308    1.4148    0.1207 H   0  0  0  0  0  0  0  0  0  0  0  0
    4.8206    3.2157   -1.1473 H   0  0  0  0  0  0  0  0  0  0  0  0
    5.1944    1.4136   -1.2652 H   0  0  0  0  0  0  0  0  0  0  0  0
    5.3562    2.3407    0.2824 H   0  0  0  0  0  0  0  0  0  0  0  0
    4.7391   -0.2662   -0.1100 H   0  0  0  0  0  0  0  0  0  0  0  0
    3.8883   -2.4903    0.4774 H   0  0  0  0  0  0  0  0  0  0  0  0
  1  2  1  0
  2  3  2  0
  2  4  1  0
  4  5  1  0
  5  6  1  0
  6  7  1  0
  7  8  2  0
  8  9  1  0
  9 10  1  0
 10 11  1  0
 11 12  2  0
 12 13  1  0
 13 14  1  0
 14 15  1  0
 13 16  2  0
 16 17  1  0
 11  7  1  0
 17 10  2  0
  1 18  1  0
  1 19  1  0
  1 20  1  0
  4 21  1  0
  5 22  1  0
  5 23  1  0
  6 24  1  0
  6 25  1  0
  8 26  1  0
  9 27  1  0
 12 28  1  0
 15 29  1  0
 15 30  1  0
 15 31  1  0
 16 32  1  0
 17 33  1  0
M  END
>  <coordinate_phase>  (27) 
ETKDG_before_MMFF

>  <molecule_id>  (27) 
melatonin

>  <seed>  (27) 
20260929

>  <conformer_id>  (27) 
26

$$$$
melatonin_20260929_27
     RDKit          3D

 33 34  0  0  0  0  0  0  0  0999 V2000
    5.2356   -0.9036   -0.6150 C   0  0  0  0  0  0  0  0  0  0  0  0
    3.7813   -0.6175   -0.3678 C   0  0  0  0  0  0  0  0  0  0  0  0
    3.0088   -0.5935   -1.3547 O   0  0  0  0  0  0  0  0  0  0  0  0
    3.3263   -0.3858    0.9500 N   0  0  0  0  0  0  0  0  0  0  0  0
    1.9510   -0.1000    1.2993 C   0  0  0  0  0  0  0  0  0  0  0  0
    1.5220    1.1583    0.6082 C   0  0  0  0  0  0  0  0  0  0  0  0
    0.0938    1.3958    1.0183 C   0  0  0  0  0  0  0  0  0  0  0  0
   -0.3154    2.3358    1.9377 C   0  0  0  0  0  0  0  0  0  0  0  0
   -1.6670    2.2754    2.0634 N   0  0  0  0  0  0  0  0  0  0  0  0
   -2.1132    1.3148    1.2398 C   0  0  0  0  0  0  0  0  0  0  0  0
   -1.0376    0.7453    0.5718 C   0  0  0  0  0  0  0  0  0  0  0  0
   -1.2259   -0.2745   -0.3404 C   0  0  0  0  0  0  0  0  0  0  0  0
   -2.5324   -0.7123   -0.5673 C   0  0  0  0  0  0  0  0  0  0  0  0
   -2.6724   -1.7387   -1.4923 O   0  0  0  0  0  0  0  0  0  0  0  0
   -3.9735   -2.2229   -1.7625 C   0  0  0  0  0  0  0  0  0  0  0  0
   -3.5954   -0.1420    0.0997 C   0  0  0  0  0  0  0  0  0  0  0  0
   -3.4045    0.8847    1.0180 C   0  0  0  0  0  0  0  0  0  0  0  0
    5.3152   -1.9893   -0.8235 H   0  0  0  0  0  0  0  0  0  0  0  0
    5.8461   -0.6079    0.2774 H   0  0  0  0  0  0  0  0  0  0  0  0
    5.5809   -0.3785   -1.5279 H   0  0  0  0  0  0  0  0  0  0  0  0
    4.0371   -0.4255    1.7166 H   0  0  0  0  0  0  0  0  0  0  0  0
    1.3298   -0.9809    0.9687 H   0  0  0  0  0  0  0  0  0  0  0  0
    1.8082   -0.0648    2.3967 H   0  0  0  0  0  0  0  0  0  0  0  0
    2.1417    2.0239    0.8320 H   0  0  0  0  0  0  0  0  0  0  0  0
    1.5789    0.9990   -0.4830 H   0  0  0  0  0  0  0  0  0  0  0  0
    0.3702    3.0078    2.4638 H   0  0  0  0  0  0  0  0  0  0  0  0
   -2.1955    2.9075    2.7154 H   0  0  0  0  0  0  0  0  0  0  0  0
   -0.3892   -0.7103   -0.8538 H   0  0  0  0  0  0  0  0  0  0  0  0
   -4.6338   -1.3865   -2.0191 H   0  0  0  0  0  0  0  0  0  0  0  0
   -3.9717   -3.0047   -2.5403 H   0  0  0  0  0  0  0  0  0  0  0  0
   -4.3577   -2.6106   -0.7761 H   0  0  0  0  0  0  0  0  0  0  0  0
   -4.5809   -0.5223   -0.1175 H   0  0  0  0  0  0  0  0  0  0  0  0
   -4.2610    1.3238    1.5366 H   0  0  0  0  0  0  0  0  0  0  0  0
  1  2  1  0
  2  3  2  0
  2  4  1  0
  4  5  1  0
  5  6  1  0
  6  7  1  0
  7  8  2  0
  8  9  1  0
  9 10  1  0
 10 11  1  0
 11 12  2  0
 12 13  1  0
 13 14  1  0
 14 15  1  0
 13 16  2  0
 16 17  1  0
 11  7  1  0
 17 10  2  0
  1 18  1  0
  1 19  1  0
  1 20  1  0
  4 21  1  0
  5 22  1  0
  5 23  1  0
  6 24  1  0
  6 25  1  0
  8 26  1  0
  9 27  1  0
 12 28  1  0
 15 29  1  0
 15 30  1  0
 15 31  1  0
 16 32  1  0
 17 33  1  0
M  END
>  <coordinate_phase>  (28) 
ETKDG_before_MMFF

>  <molecule_id>  (28) 
melatonin

>  <seed>  (28) 
20260929

>  <conformer_id>  (28) 
27

$$$$
melatonin_20260929_28
     RDKit          3D

 33 34  0  0  0  0  0  0  0  0999 V2000
   -5.2613   -0.7996    1.8940 C   0  0  0  0  0  0  0  0  0  0  0  0
   -4.0394   -0.0946    1.4494 C   0  0  0  0  0  0  0  0  0  0  0  0
   -3.6493    0.8980    2.1551 O   0  0  0  0  0  0  0  0  0  0  0  0
   -3.2838   -0.4477    0.3040 N   0  0  0  0  0  0  0  0  0  0  0  0
   -2.0969    0.2732   -0.0816 C   0  0  0  0  0  0  0  0  0  0  0  0
   -1.4720   -0.3087   -1.3564 C   0  0  0  0  0  0  0  0  0  0  0  0
   -0.2459    0.4464   -1.7103 C   0  0  0  0  0  0  0  0  0  0  0  0
   -0.0770    1.4136   -2.6703 C   0  0  0  0  0  0  0  0  0  0  0  0
    1.2072    1.8515   -2.6687 N   0  0  0  0  0  0  0  0  0  0  0  0
    1.8535    1.1573   -1.7016 C   0  0  0  0  0  0  0  0  0  0  0  0
    0.9868    0.2840   -1.0929 C   0  0  0  0  0  0  0  0  0  0  0  0
    1.4102   -0.5555   -0.0626 C   0  0  0  0  0  0  0  0  0  0  0  0
    2.7207   -0.5190    0.3618 C   0  0  0  0  0  0  0  0  0  0  0  0
    3.1814   -1.3525    1.3959 O   0  0  0  0  0  0  0  0  0  0  0  0
    4.5608   -1.2582    1.7708 C   0  0  0  0  0  0  0  0  0  0  0  0
    3.5816    0.3620   -0.2560 C   0  0  0  0  0  0  0  0  0  0  0  0
    3.1800    1.2062   -1.2829 C   0  0  0  0  0  0  0  0  0  0  0  0
   -6.0688   -0.1099    2.2136 H   0  0  0  0  0  0  0  0  0  0  0  0
   -5.6567   -1.3831    1.0344 H   0  0  0  0  0  0  0  0  0  0  0  0
   -4.9820   -1.5123    2.7273 H   0  0  0  0  0  0  0  0  0  0  0  0
   -3.5993   -1.2609   -0.2852 H   0  0  0  0  0  0  0  0  0  0  0  0
   -2.3575    1.3576   -0.2619 H   0  0  0  0  0  0  0  0  0  0  0  0
   -1.2983    0.2892    0.6734 H   0  0  0  0  0  0  0  0  0  0  0  0
   -1.1940   -1.3747   -1.1904 H   0  0  0  0  0  0  0  0  0  0  0  0
   -2.2402   -0.3034   -2.1458 H   0  0  0  0  0  0  0  0  0  0  0  0
   -0.8032    1.8118   -3.3554 H   0  0  0  0  0  0  0  0  0  0  0  0
    1.6609    2.5732   -3.2653 H   0  0  0  0  0  0  0  0  0  0  0  0
    0.7567   -1.2496    0.4342 H   0  0  0  0  0  0  0  0  0  0  0  0
    5.2081   -1.3655    0.8734 H   0  0  0  0  0  0  0  0  0  0  0  0
    4.8104   -2.0387    2.5059 H   0  0  0  0  0  0  0  0  0  0  0  0
    4.7113   -0.2669    2.2399 H   0  0  0  0  0  0  0  0  0  0  0  0
    4.6192    0.4085    0.0618 H   0  0  0  0  0  0  0  0  0  0  0  0
    3.8768    1.8686   -1.7304 H   0  0  0  0  0  0  0  0  0  0  0  0
  1  2  1  0
  2  3  2  0
  2  4  1  0
  4  5  1  0
  5  6  1  0
  6  7  1  0
  7  8  2  0
  8  9  1  0
  9 10  1  0
 10 11  1  0
 11 12  2  0
 12 13  1  0
 13 14  1  0
 14 15  1  0
 13 16  2  0
 16 17  1  0
 11  7  1  0
 17 10  2  0
  1 18  1  0
  1 19  1  0
  1 20  1  0
  4 21  1  0
  5 22  1  0
  5 23  1  0
  6 24  1  0
  6 25  1  0
  8 26  1  0
  9 27  1  0
 12 28  1  0
 15 29  1  0
 15 30  1  0
 15 31  1  0
 16 32  1  0
 17 33  1  0
M  END
>  <coordinate_phase>  (29) 
ETKDG_before_MMFF

>  <molecule_id>  (29) 
melatonin

>  <seed>  (29) 
20260929

>  <conformer_id>  (29) 
28

$$$$
melatonin_20260929_29
     RDKit          3D

 33 34  0  0  0  0  0  0  0  0999 V2000
    5.3684    1.8898    0.9914 C   0  0  0  0  0  0  0  0  0  0  0  0
    4.1952    1.4149    0.1996 C   0  0  0  0  0  0  0  0  0  0  0  0
    4.0390    1.8755   -0.9561 O   0  0  0  0  0  0  0  0  0  0  0  0
    3.3111    0.4667    0.7863 N   0  0  0  0  0  0  0  0  0  0  0  0
    2.1479   -0.0173    0.0322 C   0  0  0  0  0  0  0  0  0  0  0  0
    1.3678   -1.0038    0.8390 C   0  0  0  0  0  0  0  0  0  0  0  0
    0.1696   -1.5487    0.1707 C   0  0  0  0  0  0  0  0  0  0  0  0
    0.1427   -2.8207   -0.4012 C   0  0  0  0  0  0  0  0  0  0  0  0
   -1.1034   -2.9914   -0.9239 N   0  0  0  0  0  0  0  0  0  0  0  0
   -1.8311   -1.8877   -0.6975 C   0  0  0  0  0  0  0  0  0  0  0  0
   -1.0663   -0.9661   -0.0156 C   0  0  0  0  0  0  0  0  0  0  0  0
   -1.5953    0.2568    0.3386 C   0  0  0  0  0  0  0  0  0  0  0  0
   -2.9179    0.5600    0.0021 C   0  0  0  0  0  0  0  0  0  0  0  0
   -3.3730    1.7995    0.3903 O   0  0  0  0  0  0  0  0  0  0  0  0
   -4.6531    2.3007    0.1591 C   0  0  0  0  0  0  0  0  0  0  0  0
   -3.6625   -0.3734   -0.6780 C   0  0  0  0  0  0  0  0  0  0  0  0
   -3.1412   -1.6213   -1.0461 C   0  0  0  0  0  0  0  0  0  0  0  0
    5.7859    2.8274    0.5706 H   0  0  0  0  0  0  0  0  0  0  0  0
    6.1513    1.0917    1.0237 H   0  0  0  0  0  0  0  0  0  0  0  0
    5.0363    2.1453    2.0299 H   0  0  0  0  0  0  0  0  0  0  0  0
    3.4575    0.0950    1.7416 H   0  0  0  0  0  0  0  0  0  0  0  0
    2.4676   -0.4599   -0.9302 H   0  0  0  0  0  0  0  0  0  0  0  0
    1.5527    0.8835   -0.2063 H   0  0  0  0  0  0  0  0  0  0  0  0
    1.0326   -0.4563    1.7710 H   0  0  0  0  0  0  0  0  0  0  0  0
    2.0151   -1.8252    1.2305 H   0  0  0  0  0  0  0  0  0  0  0  0
    0.9531   -3.5402   -0.4284 H   0  0  0  0  0  0  0  0  0  0  0  0
   -1.3652   -3.8757   -1.4080 H   0  0  0  0  0  0  0  0  0  0  0  0
   -0.9643    0.9585    0.8746 H   0  0  0  0  0  0  0  0  0  0  0  0
   -4.6685    3.3079   -0.3129 H   0  0  0  0  0  0  0  0  0  0  0  0
   -5.1342    2.4054    1.1777 H   0  0  0  0  0  0  0  0  0  0  0  0
   -5.2730    1.6397   -0.4453 H   0  0  0  0  0  0  0  0  0  0  0  0
   -4.6866   -0.1897   -0.9579 H   0  0  0  0  0  0  0  0  0  0  0  0
   -3.7582   -2.3413   -1.5869 H   0  0  0  0  0  0  0  0  0  0  0  0
  1  2  1  0
  2  3  2  0
  2  4  1  0
  4  5  1  0
  5  6  1  0
  6  7  1  0
  7  8  2  0
  8  9  1  0
  9 10  1  0
 10 11  1  0
 11 12  2  0
 12 13  1  0
 13 14  1  0
 14 15  1  0
 13 16  2  0
 16 17  1  0
 11  7  1  0
 17 10  2  0
  1 18  1  0
  1 19  1  0
  1 20  1  0
  4 21  1  0
  5 22  1  0
  5 23  1  0
  6 24  1  0
  6 25  1  0
  8 26  1  0
  9 27  1  0
 12 28  1  0
 15 29  1  0
 15 30  1  0
 15 31  1  0
 16 32  1  0
 17 33  1  0
M  END
>  <coordinate_phase>  (30) 
ETKDG_before_MMFF

>  <molecule_id>  (30) 
melatonin

>  <seed>  (30) 
20260929

>  <conformer_id>  (30) 
29

$$$$
melatonin_20260929_30
     RDKit          3D

 33 34  0  0  0  0  0  0  0  0999 V2000
    4.6376    1.6133    0.7981 C   0  0  0  0  0  0  0  0  0  0  0  0
    3.5848    0.6387    0.2628 C   0  0  0  0  0  0  0  0  0  0  0  0
    3.0625   -0.0535    1.1541 O   0  0  0  0  0  0  0  0  0  0  0  0
    3.3135    0.6049   -1.0988 N   0  0  0  0  0  0  0  0  0  0  0  0
    2.4486   -0.1539   -1.9131 C   0  0  0  0  0  0  0  0  0  0  0  0
    0.9858   -0.1568   -1.7854 C   0  0  0  0  0  0  0  0  0  0  0  0
    0.3968   -0.7535   -0.5981 C   0  0  0  0  0  0  0  0  0  0  0  0
    0.8126   -1.7640    0.2425 C   0  0  0  0  0  0  0  0  0  0  0  0
   -0.0868   -2.0350    1.1898 N   0  0  0  0  0  0  0  0  0  0  0  0
   -1.1258   -1.2012    0.9960 C   0  0  0  0  0  0  0  0  0  0  0  0
   -0.8644   -0.3914   -0.0993 C   0  0  0  0  0  0  0  0  0  0  0  0
   -1.7998    0.5620   -0.5333 C   0  0  0  0  0  0  0  0  0  0  0  0
   -3.0152    0.7256    0.1172 C   0  0  0  0  0  0  0  0  0  0  0  0
   -3.9277    1.6614   -0.3235 O   0  0  0  0  0  0  0  0  0  0  0  0
   -5.1743    1.8105    0.3516 C   0  0  0  0  0  0  0  0  0  0  0  0
   -3.2530   -0.1031    1.2183 C   0  0  0  0  0  0  0  0  0  0  0  0
   -2.3277   -1.0455    1.6463 C   0  0  0  0  0  0  0  0  0  0  0  0
    4.8591    2.3998    0.0482 H   0  0  0  0  0  0  0  0  0  0  0  0
    5.5640    0.9881    0.9643 H   0  0  0  0  0  0  0  0  0  0  0  0
    4.2879    2.0458    1.7582 H   0  0  0  0  0  0  0  0  0  0  0  0
    3.9136    1.3462   -1.6615 H   0  0  0  0  0  0  0  0  0  0  0  0
    2.7797   -0.0220   -2.9883 H   0  0  0  0  0  0  0  0  0  0  0  0
    2.7242   -1.2870   -1.7661 H   0  0  0  0  0  0  0  0  0  0  0  0
    0.5923   -0.7615   -2.6739 H   0  0  0  0  0  0  0  0  0  0  0  0
    0.5331    0.8784   -1.9278 H   0  0  0  0  0  0  0  0  0  0  0  0
    1.7639   -2.2720    0.1328 H   0  0  0  0  0  0  0  0  0  0  0  0
    0.0387   -2.7790    1.9384 H   0  0  0  0  0  0  0  0  0  0  0  0
   -1.5451    1.1567   -1.3932 H   0  0  0  0  0  0  0  0  0  0  0  0
   -4.9763    2.1561    1.3825 H   0  0  0  0  0  0  0  0  0  0  0  0
   -5.8726    2.4951   -0.1784 H   0  0  0  0  0  0  0  0  0  0  0  0
   -5.6270    0.7800    0.4537 H   0  0  0  0  0  0  0  0  0  0  0  0
   -4.1919   -0.0286    1.7884 H   0  0  0  0  0  0  0  0  0  0  0  0
   -2.5108   -1.6821    2.4974 H   0  0  0  0  0  0  0  0  0  0  0  0
  1  2  1  0
  2  3  2  0
  2  4  1  0
  4  5  1  0
  5  6  1  0
  6  7  1  0
  7  8  2  0
  8  9  1  0
  9 10  1  0
 10 11  1  0
 11 12  2  0
 12 13  1  0
 13 14  1  0
 14 15  1  0
 13 16  2  0
 16 17  1  0
 11  7  1  0
 17 10  2  0
  1 18  1  0
  1 19  1  0
  1 20  1  0
  4 21  1  0
  5 22  1  0
  5 23  1  0
  6 24  1  0
  6 25  1  0
  8 26  1  0
  9 27  1  0
 12 28  1  0
 15 29  1  0
 15 30  1  0
 15 31  1  0
 16 32  1  0
 17 33  1  0
M  END
>  <coordinate_phase>  (31) 
ETKDG_before_MMFF

>  <molecule_id>  (31) 
melatonin

>  <seed>  (31) 
20260929

>  <conformer_id>  (31) 
30

$$$$
melatonin_20260929_31
     RDKit          3D

 33 34  0  0  0  0  0  0  0  0999 V2000
    5.6552    0.8984    1.0892 C   0  0  0  0  0  0  0  0  0  0  0  0
    4.3302    0.2450    0.8403 C   0  0  0  0  0  0  0  0  0  0  0  0
    3.6192   -0.1191    1.8292 O   0  0  0  0  0  0  0  0  0  0  0  0
    3.8456    0.0209   -0.4824 N   0  0  0  0  0  0  0  0  0  0  0  0
    2.5826   -0.6014   -0.7635 C   0  0  0  0  0  0  0  0  0  0  0  0
    1.3913    0.1371   -0.1938 C   0  0  0  0  0  0  0  0  0  0  0  0
    0.1757   -0.6419   -0.5779 C   0  0  0  0  0  0  0  0  0  0  0  0
    0.0904   -1.8106   -1.3067 C   0  0  0  0  0  0  0  0  0  0  0  0
   -1.1715   -2.2109   -1.4482 N   0  0  0  0  0  0  0  0  0  0  0  0
   -1.9353   -1.2911   -0.8017 C   0  0  0  0  0  0  0  0  0  0  0  0
   -1.1269   -0.3150   -0.2576 C   0  0  0  0  0  0  0  0  0  0  0  0
   -1.7159    0.7142    0.4426 C   0  0  0  0  0  0  0  0  0  0  0  0
   -3.0859    0.7863    0.6082 C   0  0  0  0  0  0  0  0  0  0  0  0
   -3.6806    1.8231    1.3137 O   0  0  0  0  0  0  0  0  0  0  0  0
   -5.0998    1.8850    1.4773 C   0  0  0  0  0  0  0  0  0  0  0  0
   -3.8829   -0.2166    0.0463 C   0  0  0  0  0  0  0  0  0  0  0  0
   -3.3058   -1.2652   -0.6650 C   0  0  0  0  0  0  0  0  0  0  0  0
    6.3324    0.6263    0.2441 H   0  0  0  0  0  0  0  0  0  0  0  0
    5.5425    1.9986    1.1955 H   0  0  0  0  0  0  0  0  0  0  0  0
    6.0984    0.4154    1.9791 H   0  0  0  0  0  0  0  0  0  0  0  0
    4.4978    0.3533   -1.2539 H   0  0  0  0  0  0  0  0  0  0  0  0
    2.4969   -1.6543   -0.4483 H   0  0  0  0  0  0  0  0  0  0  0  0
    2.4449   -0.6056   -1.8649 H   0  0  0  0  0  0  0  0  0  0  0  0
    1.4715    0.0790    0.9282 H   0  0  0  0  0  0  0  0  0  0  0  0
    1.3146    1.1840   -0.5090 H   0  0  0  0  0  0  0  0  0  0  0  0
    0.9793   -2.3075   -1.6978 H   0  0  0  0  0  0  0  0  0  0  0  0
   -1.4791   -3.0597   -1.9560 H   0  0  0  0  0  0  0  0  0  0  0  0
   -1.0695    1.4603    0.8559 H   0  0  0  0  0  0  0  0  0  0  0  0
   -5.5854    1.6947    0.4759 H   0  0  0  0  0  0  0  0  0  0  0  0
   -5.4107    2.9146    1.7348 H   0  0  0  0  0  0  0  0  0  0  0  0
   -5.4416    1.1201    2.1743 H   0  0  0  0  0  0  0  0  0  0  0  0
   -4.9591   -0.2176    0.1401 H   0  0  0  0  0  0  0  0  0  0  0  0
   -3.9184   -2.0397   -1.0992 H   0  0  0  0  0  0  0  0  0  0  0  0
  1  2  1  0
  2  3  2  0
  2  4  1  0
  4  5  1  0
  5  6  1  0
  6  7  1  0
  7  8  2  0
  8  9  1  0
  9 10  1  0
 10 11  1  0
 11 12  2  0
 12 13  1  0
 13 14  1  0
 14 15  1  0
 13 16  2  0
 16 17  1  0
 11  7  1  0
 17 10  2  0
  1 18  1  0
  1 19  1  0
  1 20  1  0
  4 21  1  0
  5 22  1  0
  5 23  1  0
  6 24  1  0
  6 25  1  0
  8 26  1  0
  9 27  1  0
 12 28  1  0
 15 29  1  0
 15 30  1  0
 15 31  1  0
 16 32  1  0
 17 33  1  0
M  END
>  <coordinate_phase>  (32) 
ETKDG_before_MMFF

>  <molecule_id>  (32) 
melatonin

>  <seed>  (32) 
20260929

>  <conformer_id>  (32) 
31

$$$$
melatonin_20260929_32
     RDKit          3D

 33 34  0  0  0  0  0  0  0  0999 V2000
    5.1922    1.7211    0.6693 C   0  0  0  0  0  0  0  0  0  0  0  0
    3.9364    0.8994    0.7438 C   0  0  0  0  0  0  0  0  0  0  0  0
    3.2008    0.9599    1.7443 O   0  0  0  0  0  0  0  0  0  0  0  0
    3.5695    0.0397   -0.3287 N   0  0  0  0  0  0  0  0  0  0  0  0
    2.3930   -0.7649   -0.3202 C   0  0  0  0  0  0  0  0  0  0  0  0
    1.0945   -0.0137   -0.1982 C   0  0  0  0  0  0  0  0  0  0  0  0
   -0.0082   -1.0189   -0.2075 C   0  0  0  0  0  0  0  0  0  0  0  0
    0.0977   -2.4051   -0.3085 C   0  0  0  0  0  0  0  0  0  0  0  0
   -1.1162   -2.9487   -0.2801 N   0  0  0  0  0  0  0  0  0  0  0  0
   -2.0219   -1.9471   -0.1621 C   0  0  0  0  0  0  0  0  0  0  0  0
   -1.3681   -0.7298   -0.1139 C   0  0  0  0  0  0  0  0  0  0  0  0
   -2.0852    0.4358    0.0051 C   0  0  0  0  0  0  0  0  0  0  0  0
   -3.4612    0.3735    0.0754 C   0  0  0  0  0  0  0  0  0  0  0  0
   -4.2725    1.4916    0.1963 O   0  0  0  0  0  0  0  0  0  0  0  0
   -3.6519    2.7540    0.2494 C   0  0  0  0  0  0  0  0  0  0  0  0
   -4.1018   -0.8685    0.0248 C   0  0  0  0  0  0  0  0  0  0  0  0
   -3.4045   -2.0472   -0.0940 C   0  0  0  0  0  0  0  0  0  0  0  0
    6.0846    1.1545    0.9703 H   0  0  0  0  0  0  0  0  0  0  0  0
    5.0707    2.6990    1.1735 H   0  0  0  0  0  0  0  0  0  0  0  0
    5.3762    1.9838   -0.4117 H   0  0  0  0  0  0  0  0  0  0  0  0
    4.2440    0.0378   -1.1515 H   0  0  0  0  0  0  0  0  0  0  0  0
    2.3429   -1.3379   -1.2690 H   0  0  0  0  0  0  0  0  0  0  0  0
    2.3690   -1.5465    0.4789 H   0  0  0  0  0  0  0  0  0  0  0  0
    0.9533    0.7969   -0.9131 H   0  0  0  0  0  0  0  0  0  0  0  0
    1.0291    0.4565    0.8193 H   0  0  0  0  0  0  0  0  0  0  0  0
    1.0226   -2.9644   -0.3971 H   0  0  0  0  0  0  0  0  0  0  0  0
   -1.3367   -3.9759   -0.3387 H   0  0  0  0  0  0  0  0  0  0  0  0
   -1.5965    1.3850    0.0438 H   0  0  0  0  0  0  0  0  0  0  0  0
   -2.7947    2.7606    0.9733 H   0  0  0  0  0  0  0  0  0  0  0  0
   -4.4262    3.4809    0.6034 H   0  0  0  0  0  0  0  0  0  0  0  0
   -3.2424    3.0900   -0.7204 H   0  0  0  0  0  0  0  0  0  0  0  0
   -5.1896   -0.9461    0.0784 H   0  0  0  0  0  0  0  0  0  0  0  0
   -3.8985   -3.0053   -0.1331 H   0  0  0  0  0  0  0  0  0  0  0  0
  1  2  1  0
  2  3  2  0
  2  4  1  0
  4  5  1  0
  5  6  1  0
  6  7  1  0
  7  8  2  0
  8  9  1  0
  9 10  1  0
 10 11  1  0
 11 12  2  0
 12 13  1  0
 13 14  1  0
 14 15  1  0
 13 16  2  0
 16 17  1  0
 11  7  1  0
 17 10  2  0
  1 18  1  0
  1 19  1  0
  1 20  1  0
  4 21  1  0
  5 22  1  0
  5 23  1  0
  6 24  1  0
  6 25  1  0
  8 26  1  0
  9 27  1  0
 12 28  1  0
 15 29  1  0
 15 30  1  0
 15 31  1  0
 16 32  1  0
 17 33  1  0
M  END
>  <coordinate_phase>  (33) 
ETKDG_before_MMFF

>  <molecule_id>  (33) 
melatonin

>  <seed>  (33) 
20260929

>  <conformer_id>  (33) 
32

$$$$
melatonin_20260930_33
     RDKit          3D

 33 34  0  0  0  0  0  0  0  0999 V2000
   -5.1416    1.5860    0.0945 C   0  0  0  0  0  0  0  0  0  0  0  0
   -3.7250    1.1207    0.0228 C   0  0  0  0  0  0  0  0  0  0  0  0
   -2.9062    1.6715    0.7908 O   0  0  0  0  0  0  0  0  0  0  0  0
   -3.3624    0.0962   -0.8893 N   0  0  0  0  0  0  0  0  0  0  0  0
   -2.0151   -0.4194   -1.0257 C   0  0  0  0  0  0  0  0  0  0  0  0
   -1.5908   -1.0000    0.2923 C   0  0  0  0  0  0  0  0  0  0  0  0
   -0.2119   -1.5501    0.2075 C   0  0  0  0  0  0  0  0  0  0  0  0
    0.1264   -2.9051    0.1170 C   0  0  0  0  0  0  0  0  0  0  0  0
    1.4697   -3.0279    0.0566 N   0  0  0  0  0  0  0  0  0  0  0  0
    2.0109   -1.8021    0.1047 C   0  0  0  0  0  0  0  0  0  0  0  0
    0.9897   -0.8755    0.1979 C   0  0  0  0  0  0  0  0  0  0  0  0
    1.3054    0.4638    0.2622 C   0  0  0  0  0  0  0  0  0  0  0  0
    2.6198    0.9244    0.2372 C   0  0  0  0  0  0  0  0  0  0  0  0
    2.8785    2.2633    0.3040 O   0  0  0  0  0  0  0  0  0  0  0  0
    4.2142    2.7079    0.2774 C   0  0  0  0  0  0  0  0  0  0  0  0
    3.6213   -0.0449    0.1425 C   0  0  0  0  0  0  0  0  0  0  0  0
    3.3321   -1.3922    0.0765 C   0  0  0  0  0  0  0  0  0  0  0  0
   -5.7439    1.1217   -0.7197 H   0  0  0  0  0  0  0  0  0  0  0  0
   -5.2124    2.6898   -0.0247 H   0  0  0  0  0  0  0  0  0  0  0  0
   -5.5190    1.3035    1.1053 H   0  0  0  0  0  0  0  0  0  0  0  0
   -4.1384   -0.2933   -1.4891 H   0  0  0  0  0  0  0  0  0  0  0  0
   -1.9831   -1.1994   -1.7873 H   0  0  0  0  0  0  0  0  0  0  0  0
   -1.3555    0.4393   -1.2807 H   0  0  0  0  0  0  0  0  0  0  0  0
   -1.6905   -0.2730    1.1234 H   0  0  0  0  0  0  0  0  0  0  0  0
   -2.2932   -1.8555    0.4988 H   0  0  0  0  0  0  0  0  0  0  0  0
   -0.6264   -3.6972    0.1022 H   0  0  0  0  0  0  0  0  0  0  0  0
    1.9749   -3.9358   -0.0150 H   0  0  0  0  0  0  0  0  0  0  0  0
    0.5104    1.2063    0.3360 H   0  0  0  0  0  0  0  0  0  0  0  0
    4.2493    3.7915    0.0379 H   0  0  0  0  0  0  0  0  0  0  0  0
    4.7668    2.1871   -0.5456 H   0  0  0  0  0  0  0  0  0  0  0  0
    4.6515    2.5462    1.2661 H   0  0  0  0  0  0  0  0  0  0  0  0
    4.6603    0.2600    0.1193 H   0  0  0  0  0  0  0  0  0  0  0  0
    4.1340   -2.1079    0.0041 H   0  0  0  0  0  0  0  0  0  0  0  0
  1  2  1  0
  2  3  2  0
  2  4  1  0
  4  5  1  0
  5  6  1  0
  6  7  1  0
  7  8  2  0
  8  9  1  0
  9 10  1  0
 10 11  1  0
 11 12  2  0
 12 13  1  0
 13 14  1  0
 14 15  1  0
 13 16  2  0
 16 17  1  0
 11  7  1  0
 17 10  2  0
  1 18  1  0
  1 19  1  0
  1 20  1  0
  4 21  1  0
  5 22  1  0
  5 23  1  0
  6 24  1  0
  6 25  1  0
  8 26  1  0
  9 27  1  0
 12 28  1  0
 15 29  1  0
 15 30  1  0
 15 31  1  0
 16 32  1  0
 17 33  1  0
M  END
>  <coordinate_phase>  (34) 
ETKDG_before_MMFF

>  <molecule_id>  (34) 
melatonin

>  <seed>  (34) 
20260930

>  <conformer_id>  (34) 
33

$$$$
melatonin_20260930_34
     RDKit          3D

 33 34  0  0  0  0  0  0  0  0999 V2000
    5.0568   -1.5000    0.1681 C   0  0  0  0  0  0  0  0  0  0  0  0
    3.9717   -0.4917    0.0583 C   0  0  0  0  0  0  0  0  0  0  0  0
    4.1745    0.6444    0.5534 O   0  0  0  0  0  0  0  0  0  0  0  0
    2.7653   -0.8493   -0.5928 N   0  0  0  0  0  0  0  0  0  0  0  0
    1.6419    0.0619   -0.7488 C   0  0  0  0  0  0  0  0  0  0  0  0
    1.2002    0.4468    0.6514 C   0  0  0  0  0  0  0  0  0  0  0  0
    0.0326    1.3721    0.5644 C   0  0  0  0  0  0  0  0  0  0  0  0
    0.0031    2.7403    0.7466 C   0  0  0  0  0  0  0  0  0  0  0  0
   -1.2936    3.1100    0.5636 N   0  0  0  0  0  0  0  0  0  0  0  0
   -2.0416    2.0193    0.2790 C   0  0  0  0  0  0  0  0  0  0  0  0
   -1.2385    0.9040    0.2704 C   0  0  0  0  0  0  0  0  0  0  0  0
   -1.8014   -0.3220    0.0003 C   0  0  0  0  0  0  0  0  0  0  0  0
   -3.1438   -0.4685   -0.2631 C   0  0  0  0  0  0  0  0  0  0  0  0
   -3.7695   -1.6628   -0.5419 O   0  0  0  0  0  0  0  0  0  0  0  0
   -3.0176   -2.8517   -0.5708 C   0  0  0  0  0  0  0  0  0  0  0  0
   -3.9273    0.6727   -0.2477 C   0  0  0  0  0  0  0  0  0  0  0  0
   -3.4132    1.9264    0.0184 C   0  0  0  0  0  0  0  0  0  0  0  0
    4.7671   -2.4728   -0.2523 H   0  0  0  0  0  0  0  0  0  0  0  0
    5.2812   -1.6607    1.2433 H   0  0  0  0  0  0  0  0  0  0  0  0
    5.9623   -1.0757   -0.2834 H   0  0  0  0  0  0  0  0  0  0  0  0
    2.6821   -1.8264   -0.9811 H   0  0  0  0  0  0  0  0  0  0  0  0
    0.8162   -0.3681   -1.3043 H   0  0  0  0  0  0  0  0  0  0  0  0
    2.0070    0.9810   -1.2948 H   0  0  0  0  0  0  0  0  0  0  0  0
    0.8912   -0.4930    1.1739 H   0  0  0  0  0  0  0  0  0  0  0  0
    1.9752    0.9490    1.2277 H   0  0  0  0  0  0  0  0  0  0  0  0
    0.8387    3.3803    0.9854 H   0  0  0  0  0  0  0  0  0  0  0  0
   -1.6972    4.0889    0.6256 H   0  0  0  0  0  0  0  0  0  0  0  0
   -1.1442   -1.1757    0.0033 H   0  0  0  0  0  0  0  0  0  0  0  0
   -3.5767   -3.5956   -1.1848 H   0  0  0  0  0  0  0  0  0  0  0  0
   -2.9635   -3.1908    0.5044 H   0  0  0  0  0  0  0  0  0  0  0  0
   -1.9971   -2.7181   -0.9521 H   0  0  0  0  0  0  0  0  0  0  0  0
   -5.0011    0.6198   -0.4479 H   0  0  0  0  0  0  0  0  0  0  0  0
   -4.0406    2.8059    0.0283 H   0  0  0  0  0  0  0  0  0  0  0  0
  1  2  1  0
  2  3  2  0
  2  4  1  0
  4  5  1  0
  5  6  1  0
  6  7  1  0
  7  8  2  0
  8  9  1  0
  9 10  1  0
 10 11  1  0
 11 12  2  0
 12 13  1  0
 13 14  1  0
 14 15  1  0
 13 16  2  0
 16 17  1  0
 11  7  1  0
 17 10  2  0
  1 18  1  0
  1 19  1  0
  1 20  1  0
  4 21  1  0
  5 22  1  0
  5 23  1  0
  6 24  1  0
  6 25  1  0
  8 26  1  0
  9 27  1  0
 12 28  1  0
 15 29  1  0
 15 30  1  0
 15 31  1  0
 16 32  1  0
 17 33  1  0
M  END
>  <coordinate_phase>  (35) 
ETKDG_before_MMFF

>  <molecule_id>  (35) 
melatonin

>  <seed>  (35) 
20260930

>  <conformer_id>  (35) 
34

$$$$
melatonin_20260930_35
     RDKit          3D

 33 34  0  0  0  0  0  0  0  0999 V2000
   -6.1073    1.0160   -0.1905 C   0  0  0  0  0  0  0  0  0  0  0  0
   -4.9377    0.1726    0.1270 C   0  0  0  0  0  0  0  0  0  0  0  0
   -5.1158   -0.9838    0.6120 O   0  0  0  0  0  0  0  0  0  0  0  0
   -3.6273    0.6766   -0.1189 N   0  0  0  0  0  0  0  0  0  0  0  0
   -2.5213   -0.2127    0.2193 C   0  0  0  0  0  0  0  0  0  0  0  0
   -1.2041    0.4448   -0.0905 C   0  0  0  0  0  0  0  0  0  0  0  0
   -0.1132   -0.5105    0.2753 C   0  0  0  0  0  0  0  0  0  0  0  0
   -0.2450   -1.7849    0.8079 C   0  0  0  0  0  0  0  0  0  0  0  0
    1.0014   -2.2673    0.9732 N   0  0  0  0  0  0  0  0  0  0  0  0
    1.9095   -1.3807    0.5797 C   0  0  0  0  0  0  0  0  0  0  0  0
    1.2482   -0.2546    0.1309 C   0  0  0  0  0  0  0  0  0  0  0  0
    1.9467    0.8470   -0.3459 C   0  0  0  0  0  0  0  0  0  0  0  0
    3.3443    0.8551   -0.3885 C   0  0  0  0  0  0  0  0  0  0  0  0
    4.0032    1.9774   -0.8728 O   0  0  0  0  0  0  0  0  0  0  0  0
    5.4195    1.9380   -0.8962 C   0  0  0  0  0  0  0  0  0  0  0  0
    3.9982   -0.2729    0.0613 C   0  0  0  0  0  0  0  0  0  0  0  0
    3.3055   -1.3687    0.5355 C   0  0  0  0  0  0  0  0  0  0  0  0
   -6.8516    0.9508    0.6312 H   0  0  0  0  0  0  0  0  0  0  0  0
   -6.5703    0.6354   -1.1425 H   0  0  0  0  0  0  0  0  0  0  0  0
   -5.8047    2.0501   -0.3979 H   0  0  0  0  0  0  0  0  0  0  0  0
   -3.4890    1.6252   -0.5166 H   0  0  0  0  0  0  0  0  0  0  0  0
   -2.5569   -0.5060    1.2975 H   0  0  0  0  0  0  0  0  0  0  0  0
   -2.5749   -1.1207   -0.4445 H   0  0  0  0  0  0  0  0  0  0  0  0
   -1.1458    0.6169   -1.1827 H   0  0  0  0  0  0  0  0  0  0  0  0
   -1.0573    1.3850    0.4835 H   0  0  0  0  0  0  0  0  0  0  0  0
   -1.1905   -2.2864    1.0426 H   0  0  0  0  0  0  0  0  0  0  0  0
    1.2024   -3.2141    1.3604 H   0  0  0  0  0  0  0  0  0  0  0  0
    1.3944    1.7188   -0.6922 H   0  0  0  0  0  0  0  0  0  0  0  0
    5.6781    1.0927   -1.5927 H   0  0  0  0  0  0  0  0  0  0  0  0
    5.8545    1.6838    0.0906 H   0  0  0  0  0  0  0  0  0  0  0  0
    5.8551    2.8800   -1.2819 H   0  0  0  0  0  0  0  0  0  0  0  0
    5.0749   -0.3095    0.0462 H   0  0  0  0  0  0  0  0  0  0  0  0
    3.8770   -2.2381    0.8803 H   0  0  0  0  0  0  0  0  0  0  0  0
  1  2  1  0
  2  3  2  0
  2  4  1  0
  4  5  1  0
  5  6  1  0
  6  7  1  0
  7  8  2  0
  8  9  1  0
  9 10  1  0
 10 11  1  0
 11 12  2  0
 12 13  1  0
 13 14  1  0
 14 15  1  0
 13 16  2  0
 16 17  1  0
 11  7  1  0
 17 10  2  0
  1 18  1  0
  1 19  1  0
  1 20  1  0
  4 21  1  0
  5 22  1  0
  5 23  1  0
  6 24  1  0
  6 25  1  0
  8 26  1  0
  9 27  1  0
 12 28  1  0
 15 29  1  0
 15 30  1  0
 15 31  1  0
 16 32  1  0
 17 33  1  0
M  END
>  <coordinate_phase>  (36) 
ETKDG_before_MMFF

>  <molecule_id>  (36) 
melatonin

>  <seed>  (36) 
20260930

>  <conformer_id>  (36) 
35

$$$$
melatonin_20260930_36
     RDKit          3D

 33 34  0  0  0  0  0  0  0  0999 V2000
    4.8009    2.3489   -0.0966 C   0  0  0  0  0  0  0  0  0  0  0  0
    3.6998    1.4520    0.3293 C   0  0  0  0  0  0  0  0  0  0  0  0
    3.4876    1.2410    1.5542 O   0  0  0  0  0  0  0  0  0  0  0  0
    2.8449    0.8000   -0.6270 N   0  0  0  0  0  0  0  0  0  0  0  0
    1.8052   -0.0507   -0.0685 C   0  0  0  0  0  0  0  0  0  0  0  0
    0.9881   -0.6711   -1.1803 C   0  0  0  0  0  0  0  0  0  0  0  0
   -0.0530   -1.5285   -0.5609 C   0  0  0  0  0  0  0  0  0  0  0  0
    0.0494   -2.9153   -0.5288 C   0  0  0  0  0  0  0  0  0  0  0  0
   -1.0618   -3.3397    0.1058 N   0  0  0  0  0  0  0  0  0  0  0  0
   -1.8341   -2.3005    0.4624 C   0  0  0  0  0  0  0  0  0  0  0  0
   -1.2209   -1.1307    0.0531 C   0  0  0  0  0  0  0  0  0  0  0  0
   -1.7768    0.1110    0.2780 C   0  0  0  0  0  0  0  0  0  0  0  0
   -2.9919    0.1503    0.9391 C   0  0  0  0  0  0  0  0  0  0  0  0
   -3.6345    1.3233    1.2141 O   0  0  0  0  0  0  0  0  0  0  0  0
   -3.2181    2.6202    0.9017 C   0  0  0  0  0  0  0  0  0  0  0  0
   -3.6159   -1.0287    1.3546 C   0  0  0  0  0  0  0  0  0  0  0  0
   -3.0459   -2.2649    1.1220 C   0  0  0  0  0  0  0  0  0  0  0  0
    5.6596    2.1506    0.5886 H   0  0  0  0  0  0  0  0  0  0  0  0
    5.1910    2.0643   -1.1114 H   0  0  0  0  0  0  0  0  0  0  0  0
    4.5108    3.4113   -0.0825 H   0  0  0  0  0  0  0  0  0  0  0  0
    2.9795    0.9427   -1.6545 H   0  0  0  0  0  0  0  0  0  0  0  0
    2.3349   -0.8536    0.4831 H   0  0  0  0  0  0  0  0  0  0  0  0
    1.1815    0.5879    0.5716 H   0  0  0  0  0  0  0  0  0  0  0  0
    1.6280   -1.2370   -1.8817 H   0  0  0  0  0  0  0  0  0  0  0  0
    0.4585    0.1502   -1.7385 H   0  0  0  0  0  0  0  0  0  0  0  0
    0.8603   -3.5229   -0.9332 H   0  0  0  0  0  0  0  0  0  0  0  0
   -1.2590   -4.3665    0.2776 H   0  0  0  0  0  0  0  0  0  0  0  0
   -1.2813    1.0145   -0.0504 H   0  0  0  0  0  0  0  0  0  0  0  0
   -3.9556    3.3407    1.3280 H   0  0  0  0  0  0  0  0  0  0  0  0
   -2.2399    2.9099    1.3210 H   0  0  0  0  0  0  0  0  0  0  0  0
   -3.2477    2.7708   -0.1833 H   0  0  0  0  0  0  0  0  0  0  0  0
   -4.5549   -0.9855    1.8633 H   0  0  0  0  0  0  0  0  0  0  0  0
   -3.4889   -3.1939    1.4235 H   0  0  0  0  0  0  0  0  0  0  0  0
  1  2  1  0
  2  3  2  0
  2  4  1  0
  4  5  1  0
  5  6  1  0
  6  7  1  0
  7  8  2  0
  8  9  1  0
  9 10  1  0
 10 11  1  0
 11 12  2  0
 12 13  1  0
 13 14  1  0
 14 15  1  0
 13 16  2  0
 16 17  1  0
 11  7  1  0
 17 10  2  0
  1 18  1  0
  1 19  1  0
  1 20  1  0
  4 21  1  0
  5 22  1  0
  5 23  1  0
  6 24  1  0
  6 25  1  0
  8 26  1  0
  9 27  1  0
 12 28  1  0
 15 29  1  0
 15 30  1  0
 15 31  1  0
 16 32  1  0
 17 33  1  0
M  END
>  <coordinate_phase>  (37) 
ETKDG_before_MMFF

>  <molecule_id>  (37) 
melatonin

>  <seed>  (37) 
20260930

>  <conformer_id>  (37) 
36

$$$$
melatonin_20260930_37
     RDKit          3D

 33 34  0  0  0  0  0  0  0  0999 V2000
   -5.4991    0.7832    0.6739 C   0  0  0  0  0  0  0  0  0  0  0  0
   -4.2703   -0.0217    0.3492 C   0  0  0  0  0  0  0  0  0  0  0  0
   -4.3004   -1.2780    0.4316 O   0  0  0  0  0  0  0  0  0  0  0  0
   -3.0798    0.6260   -0.0487 N   0  0  0  0  0  0  0  0  0  0  0  0
   -1.8503   -0.0500   -0.3813 C   0  0  0  0  0  0  0  0  0  0  0  0
   -1.3818   -0.8416    0.8127 C   0  0  0  0  0  0  0  0  0  0  0  0
   -0.1063   -1.5145    0.4067 C   0  0  0  0  0  0  0  0  0  0  0  0
    0.1325   -2.8053    0.0577 C   0  0  0  0  0  0  0  0  0  0  0  0
    1.4597   -2.8941   -0.2280 N   0  0  0  0  0  0  0  0  0  0  0  0
    2.0463   -1.6936   -0.0649 C   0  0  0  0  0  0  0  0  0  0  0  0
    1.0865   -0.8005    0.3353 C   0  0  0  0  0  0  0  0  0  0  0  0
    1.4189    0.5317    0.5805 C   0  0  0  0  0  0  0  0  0  0  0  0
    2.7119    0.9860    0.4287 C   0  0  0  0  0  0  0  0  0  0  0  0
    2.9551    2.3221    0.6927 O   0  0  0  0  0  0  0  0  0  0  0  0
    4.1989    2.9624    0.5947 C   0  0  0  0  0  0  0  0  0  0  0  0
    3.6865    0.0970    0.0263 C   0  0  0  0  0  0  0  0  0  0  0  0
    3.3369   -1.2155   -0.2106 C   0  0  0  0  0  0  0  0  0  0  0  0
   -5.3631    1.7665    0.2063 H   0  0  0  0  0  0  0  0  0  0  0  0
   -6.3881    0.3076    0.1976 H   0  0  0  0  0  0  0  0  0  0  0  0
   -5.6345    0.9198    1.7640 H   0  0  0  0  0  0  0  0  0  0  0  0
   -3.1001    1.6878   -0.1048 H   0  0  0  0  0  0  0  0  0  0  0  0
   -1.0589    0.6414   -0.6756 H   0  0  0  0  0  0  0  0  0  0  0  0
   -2.0376   -0.7467   -1.2256 H   0  0  0  0  0  0  0  0  0  0  0  0
   -2.0980   -1.6059    1.1574 H   0  0  0  0  0  0  0  0  0  0  0  0
   -1.1875   -0.1604    1.6658 H   0  0  0  0  0  0  0  0  0  0  0  0
   -0.6188   -3.5892    0.0250 H   0  0  0  0  0  0  0  0  0  0  0  0
    1.9395   -3.7808   -0.5311 H   0  0  0  0  0  0  0  0  0  0  0  0
    0.6415    1.2360    0.9011 H   0  0  0  0  0  0  0  0  0  0  0  0
    5.0072    2.5190    1.1756 H   0  0  0  0  0  0  0  0  0  0  0  0
    4.0668    4.0632    0.8024 H   0  0  0  0  0  0  0  0  0  0  0  0
    4.4782    2.9434   -0.4985 H   0  0  0  0  0  0  0  0  0  0  0  0
    4.6887    0.4831   -0.0830 H   0  0  0  0  0  0  0  0  0  0  0  0
    4.1194   -1.8784   -0.5228 H   0  0  0  0  0  0  0  0  0  0  0  0
  1  2  1  0
  2  3  2  0
  2  4  1  0
  4  5  1  0
  5  6  1  0
  6  7  1  0
  7  8  2  0
  8  9  1  0
  9 10  1  0
 10 11  1  0
 11 12  2  0
 12 13  1  0
 13 14  1  0
 14 15  1  0
 13 16  2  0
 16 17  1  0
 11  7  1  0
 17 10  2  0
  1 18  1  0
  1 19  1  0
  1 20  1  0
  4 21  1  0
  5 22  1  0
  5 23  1  0
  6 24  1  0
  6 25  1  0
  8 26  1  0
  9 27  1  0
 12 28  1  0
 15 29  1  0
 15 30  1  0
 15 31  1  0
 16 32  1  0
 17 33  1  0
M  END
>  <coordinate_phase>  (38) 
ETKDG_before_MMFF

>  <molecule_id>  (38) 
melatonin

>  <seed>  (38) 
20260930

>  <conformer_id>  (38) 
37

$$$$
melatonin_20260930_38
     RDKit          3D

 33 34  0  0  0  0  0  0  0  0999 V2000
   -4.7589    1.9011   -1.1223 C   0  0  0  0  0  0  0  0  0  0  0  0
   -3.4740    1.2672   -0.7968 C   0  0  0  0  0  0  0  0  0  0  0  0
   -2.5377    1.3759   -1.6609 O   0  0  0  0  0  0  0  0  0  0  0  0
   -3.2846    0.5666    0.4242 N   0  0  0  0  0  0  0  0  0  0  0  0
   -2.0363   -0.0654    0.7730 C   0  0  0  0  0  0  0  0  0  0  0  0
   -1.6197   -1.1383   -0.2227 C   0  0  0  0  0  0  0  0  0  0  0  0
   -0.3145   -1.6914    0.2821 C   0  0  0  0  0  0  0  0  0  0  0  0
   -0.0904   -2.8911    0.9259 C   0  0  0  0  0  0  0  0  0  0  0  0
    1.2193   -3.0063    1.2114 N   0  0  0  0  0  0  0  0  0  0  0  0
    1.8578   -1.9077    0.7683 C   0  0  0  0  0  0  0  0  0  0  0  0
    0.9238   -1.0766    0.1869 C   0  0  0  0  0  0  0  0  0  0  0  0
    1.2729    0.1380   -0.3653 C   0  0  0  0  0  0  0  0  0  0  0  0
    2.6076    0.5649   -0.3489 C   0  0  0  0  0  0  0  0  0  0  0  0
    2.8562    1.7899   -0.9241 O   0  0  0  0  0  0  0  0  0  0  0  0
    4.1117    2.4074   -1.0176 C   0  0  0  0  0  0  0  0  0  0  0  0
    3.5322   -0.2539    0.2250 C   0  0  0  0  0  0  0  0  0  0  0  0
    3.1881   -1.4891    0.7882 C   0  0  0  0  0  0  0  0  0  0  0  0
   -4.6811    2.5766   -1.9995 H   0  0  0  0  0  0  0  0  0  0  0  0
   -5.0067    2.5772   -0.2599 H   0  0  0  0  0  0  0  0  0  0  0  0
   -5.5955    1.1690   -1.2008 H   0  0  0  0  0  0  0  0  0  0  0  0
   -4.1349    0.5414    1.0641 H   0  0  0  0  0  0  0  0  0  0  0  0
   -1.2109    0.6797    0.9126 H   0  0  0  0  0  0  0  0  0  0  0  0
   -2.1737   -0.5053    1.7951 H   0  0  0  0  0  0  0  0  0  0  0  0
   -1.4580   -0.6391   -1.1923 H   0  0  0  0  0  0  0  0  0  0  0  0
   -2.3900   -1.9208   -0.2709 H   0  0  0  0  0  0  0  0  0  0  0  0
   -0.8941   -3.5847    1.1363 H   0  0  0  0  0  0  0  0  0  0  0  0
    1.6603   -3.8365    1.7061 H   0  0  0  0  0  0  0  0  0  0  0  0
    0.5087    0.7618   -0.8137 H   0  0  0  0  0  0  0  0  0  0  0  0
    4.9305    1.6821   -0.8430 H   0  0  0  0  0  0  0  0  0  0  0  0
    4.2242    3.2486   -0.3023 H   0  0  0  0  0  0  0  0  0  0  0  0
    4.2872    2.8570   -2.0280 H   0  0  0  0  0  0  0  0  0  0  0  0
    4.5602    0.0403    0.2564 H   0  0  0  0  0  0  0  0  0  0  0  0
    3.9200   -2.1385    1.2424 H   0  0  0  0  0  0  0  0  0  0  0  0
  1  2  1  0
  2  3  2  0
  2  4  1  0
  4  5  1  0
  5  6  1  0
  6  7  1  0
  7  8  2  0
  8  9  1  0
  9 10  1  0
 10 11  1  0
 11 12  2  0
 12 13  1  0
 13 14  1  0
 14 15  1  0
 13 16  2  0
 16 17  1  0
 11  7  1  0
 17 10  2  0
  1 18  1  0
  1 19  1  0
  1 20  1  0
  4 21  1  0
  5 22  1  0
  5 23  1  0
  6 24  1  0
  6 25  1  0
  8 26  1  0
  9 27  1  0
 12 28  1  0
 15 29  1  0
 15 30  1  0
 15 31  1  0
 16 32  1  0
 17 33  1  0
M  END
>  <coordinate_phase>  (39) 
ETKDG_before_MMFF

>  <molecule_id>  (39) 
melatonin

>  <seed>  (39) 
20260930

>  <conformer_id>  (39) 
38

$$$$
melatonin_20260930_39
     RDKit          3D

 33 34  0  0  0  0  0  0  0  0999 V2000
    5.6385    1.1334    0.0925 C   0  0  0  0  0  0  0  0  0  0  0  0
    4.3665    0.4266   -0.2241 C   0  0  0  0  0  0  0  0  0  0  0  0
    4.4400   -0.8293   -0.3708 O   0  0  0  0  0  0  0  0  0  0  0  0
    3.1222    1.1302   -0.3565 N   0  0  0  0  0  0  0  0  0  0  0  0
    1.8890    0.4359   -0.6646 C   0  0  0  0  0  0  0  0  0  0  0  0
    1.5245   -0.6030    0.3861 C   0  0  0  0  0  0  0  0  0  0  0  0
    0.2459   -1.2637   -0.0181 C   0  0  0  0  0  0  0  0  0  0  0  0
    0.1694   -2.5378   -0.5627 C   0  0  0  0  0  0  0  0  0  0  0  0
   -1.1151   -2.7999   -0.7994 N   0  0  0  0  0  0  0  0  0  0  0  0
   -1.8729   -1.7480   -0.4303 C   0  0  0  0  0  0  0  0  0  0  0  0
   -1.0306   -0.7592    0.0695 C   0  0  0  0  0  0  0  0  0  0  0  0
   -1.5263    0.4305    0.5229 C   0  0  0  0  0  0  0  0  0  0  0  0
   -2.8882    0.6455    0.4804 C   0  0  0  0  0  0  0  0  0  0  0  0
   -3.4276    1.8450    0.9336 O   0  0  0  0  0  0  0  0  0  0  0  0
   -4.8188    2.0849    0.8993 C   0  0  0  0  0  0  0  0  0  0  0  0
   -3.7497   -0.3223   -0.0124 C   0  0  0  0  0  0  0  0  0  0  0  0
   -3.2332   -1.5163   -0.4656 C   0  0  0  0  0  0  0  0  0  0  0  0
    6.3447    0.4315    0.6026 H   0  0  0  0  0  0  0  0  0  0  0  0
    6.0695    1.5448   -0.8287 H   0  0  0  0  0  0  0  0  0  0  0  0
    5.5060    1.9645    0.8222 H   0  0  0  0  0  0  0  0  0  0  0  0
    3.1747    2.1756   -0.2145 H   0  0  0  0  0  0  0  0  0  0  0  0
    1.9182   -0.0488   -1.6662 H   0  0  0  0  0  0  0  0  0  0  0  0
    1.1021    1.2180   -0.7420 H   0  0  0  0  0  0  0  0  0  0  0  0
    1.3534   -0.0542    1.3241 H   0  0  0  0  0  0  0  0  0  0  0  0
    2.3381   -1.3372    0.5102 H   0  0  0  0  0  0  0  0  0  0  0  0
    0.9859   -3.2186   -0.7707 H   0  0  0  0  0  0  0  0  0  0  0  0
   -1.4747   -3.6943   -1.2114 H   0  0  0  0  0  0  0  0  0  0  0  0
   -0.8286    1.1663    0.9027 H   0  0  0  0  0  0  0  0  0  0  0  0
   -5.0038    3.0555    1.4287 H   0  0  0  0  0  0  0  0  0  0  0  0
   -5.1192    2.1356   -0.1779 H   0  0  0  0  0  0  0  0  0  0  0  0
   -5.3905    1.3109    1.4455 H   0  0  0  0  0  0  0  0  0  0  0  0
   -4.8192   -0.1634   -0.0483 H   0  0  0  0  0  0  0  0  0  0  0  0
   -3.8904   -2.2913   -0.8563 H   0  0  0  0  0  0  0  0  0  0  0  0
  1  2  1  0
  2  3  2  0
  2  4  1  0
  4  5  1  0
  5  6  1  0
  6  7  1  0
  7  8  2  0
  8  9  1  0
  9 10  1  0
 10 11  1  0
 11 12  2  0
 12 13  1  0
 13 14  1  0
 14 15  1  0
 13 16  2  0
 16 17  1  0
 11  7  1  0
 17 10  2  0
  1 18  1  0
  1 19  1  0
  1 20  1  0
  4 21  1  0
  5 22  1  0
  5 23  1  0
  6 24  1  0
  6 25  1  0
  8 26  1  0
  9 27  1  0
 12 28  1  0
 15 29  1  0
 15 30  1  0
 15 31  1  0
 16 32  1  0
 17 33  1  0
M  END
>  <coordinate_phase>  (40) 
ETKDG_before_MMFF

>  <molecule_id>  (40) 
melatonin

>  <seed>  (40) 
20260930

>  <conformer_id>  (40) 
39

$$$$
melatonin_20260930_40
     RDKit          3D

 33 34  0  0  0  0  0  0  0  0999 V2000
    5.2918    1.7504   -1.4695 C   0  0  0  0  0  0  0  0  0  0  0  0
    4.0878    1.4811   -0.6488 C   0  0  0  0  0  0  0  0  0  0  0  0
    3.7811    2.3136    0.2543 O   0  0  0  0  0  0  0  0  0  0  0  0
    3.3031    0.3001   -0.8878 N   0  0  0  0  0  0  0  0  0  0  0  0
    2.1229    0.0947   -0.0368 C   0  0  0  0  0  0  0  0  0  0  0  0
    1.4106   -1.1886   -0.3964 C   0  0  0  0  0  0  0  0  0  0  0  0
    0.2289   -1.4349    0.4469 C   0  0  0  0  0  0  0  0  0  0  0  0
    0.2519   -2.3503    1.5122 C   0  0  0  0  0  0  0  0  0  0  0  0
   -0.9617   -2.3514    2.0888 N   0  0  0  0  0  0  0  0  0  0  0  0
   -1.7479   -1.4824    1.4397 C   0  0  0  0  0  0  0  0  0  0  0  0
   -1.0359   -0.8920    0.4081 C   0  0  0  0  0  0  0  0  0  0  0  0
   -1.6022    0.0527   -0.4357 C   0  0  0  0  0  0  0  0  0  0  0  0
   -2.9321    0.4278   -0.2494 C   0  0  0  0  0  0  0  0  0  0  0  0
   -3.4693    1.3710   -1.1072 O   0  0  0  0  0  0  0  0  0  0  0  0
   -4.8163    1.7557   -0.9186 C   0  0  0  0  0  0  0  0  0  0  0  0
   -3.6199   -0.1664    0.7732 C   0  0  0  0  0  0  0  0  0  0  0  0
   -3.0629   -1.1142    1.6258 C   0  0  0  0  0  0  0  0  0  0  0  0
    5.2551    2.7230   -2.0018 H   0  0  0  0  0  0  0  0  0  0  0  0
    6.1727    1.8176   -0.7640 H   0  0  0  0  0  0  0  0  0  0  0  0
    5.5325    0.9400   -2.1591 H   0  0  0  0  0  0  0  0  0  0  0  0
    3.5467   -0.3944   -1.6303 H   0  0  0  0  0  0  0  0  0  0  0  0
    1.4400    0.9262   -0.2212 H   0  0  0  0  0  0  0  0  0  0  0  0
    2.4872    0.1061    0.9876 H   0  0  0  0  0  0  0  0  0  0  0  0
    1.1323   -1.2068   -1.4757 H   0  0  0  0  0  0  0  0  0  0  0  0
    2.1422   -2.0119   -0.2786 H   0  0  0  0  0  0  0  0  0  0  0  0
    1.1185   -2.9620    1.8186 H   0  0  0  0  0  0  0  0  0  0  0  0
   -1.2955   -2.9222    2.9140 H   0  0  0  0  0  0  0  0  0  0  0  0
   -1.0082    0.4848   -1.2285 H   0  0  0  0  0  0  0  0  0  0  0  0
   -4.8752    2.3128    0.0208 H   0  0  0  0  0  0  0  0  0  0  0  0
   -5.3975    0.8006   -0.7802 H   0  0  0  0  0  0  0  0  0  0  0  0
   -5.2146    2.3041   -1.8064 H   0  0  0  0  0  0  0  0  0  0  0  0
   -4.6427    0.0884    0.9572 H   0  0  0  0  0  0  0  0  0  0  0  0
   -3.6233   -1.5732    2.4329 H   0  0  0  0  0  0  0  0  0  0  0  0
  1  2  1  0
  2  3  2  0
  2  4  1  0
  4  5  1  0
  5  6  1  0
  6  7  1  0
  7  8  2  0
  8  9  1  0
  9 10  1  0
 10 11  1  0
 11 12  2  0
 12 13  1  0
 13 14  1  0
 14 15  1  0
 13 16  2  0
 16 17  1  0
 11  7  1  0
 17 10  2  0
  1 18  1  0
  1 19  1  0
  1 20  1  0
  4 21  1  0
  5 22  1  0
  5 23  1  0
  6 24  1  0
  6 25  1  0
  8 26  1  0
  9 27  1  0
 12 28  1  0
 15 29  1  0
 15 30  1  0
 15 31  1  0
 16 32  1  0
 17 33  1  0
M  END
>  <coordinate_phase>  (41) 
ETKDG_before_MMFF

>  <molecule_id>  (41) 
melatonin

>  <seed>  (41) 
20260930

>  <conformer_id>  (41) 
40

$$$$
melatonin_20260930_41
     RDKit          3D

 33 34  0  0  0  0  0  0  0  0999 V2000
    5.6637    1.1682    0.5079 C   0  0  0  0  0  0  0  0  0  0  0  0
    4.3113    0.5533    0.6552 C   0  0  0  0  0  0  0  0  0  0  0  0
    3.5712    0.8970    1.6268 O   0  0  0  0  0  0  0  0  0  0  0  0
    3.8488   -0.4113   -0.2825 N   0  0  0  0  0  0  0  0  0  0  0  0
    2.5571   -1.0251   -0.1765 C   0  0  0  0  0  0  0  0  0  0  0  0
    1.3972   -0.0770   -0.2244 C   0  0  0  0  0  0  0  0  0  0  0  0
    0.1534   -0.8962   -0.1006 C   0  0  0  0  0  0  0  0  0  0  0  0
    0.0300   -2.2637    0.0343 C   0  0  0  0  0  0  0  0  0  0  0  0
   -1.2628   -2.6229    0.1161 N   0  0  0  0  0  0  0  0  0  0  0  0
   -1.9831   -1.5054    0.0361 C   0  0  0  0  0  0  0  0  0  0  0  0
   -1.1388   -0.4007   -0.1002 C   0  0  0  0  0  0  0  0  0  0  0  0
   -1.6859    0.8669   -0.2008 C   0  0  0  0  0  0  0  0  0  0  0  0
   -3.0692    1.0382   -0.1662 C   0  0  0  0  0  0  0  0  0  0  0  0
   -3.5821    2.3230   -0.2697 O   0  0  0  0  0  0  0  0  0  0  0  0
   -5.0003    2.4563   -0.2302 C   0  0  0  0  0  0  0  0  0  0  0  0
   -3.8646   -0.0808   -0.0303 C   0  0  0  0  0  0  0  0  0  0  0  0
   -3.3630   -1.3609    0.0732 C   0  0  0  0  0  0  0  0  0  0  0  0
    5.6452    2.2635    0.6403 H   0  0  0  0  0  0  0  0  0  0  0  0
    6.3097    0.6643    1.2695 H   0  0  0  0  0  0  0  0  0  0  0  0
    6.0315    0.9684   -0.5360 H   0  0  0  0  0  0  0  0  0  0  0  0
    4.5075   -0.6526   -1.0626 H   0  0  0  0  0  0  0  0  0  0  0  0
    2.4342   -1.7556   -0.9964 H   0  0  0  0  0  0  0  0  0  0  0  0
    2.4394   -1.6256    0.7642 H   0  0  0  0  0  0  0  0  0  0  0  0
    1.3812    0.4638   -1.2152 H   0  0  0  0  0  0  0  0  0  0  0  0
    1.4860    0.6637    0.5935 H   0  0  0  0  0  0  0  0  0  0  0  0
    0.8674   -2.9511    0.0689 H   0  0  0  0  0  0  0  0  0  0  0  0
   -1.5918   -3.5905    0.2204 H   0  0  0  0  0  0  0  0  0  0  0  0
   -1.0444    1.7214   -0.3058 H   0  0  0  0  0  0  0  0  0  0  0  0
   -5.3222    3.5112   -0.2696 H   0  0  0  0  0  0  0  0  0  0  0  0
   -5.3768    1.9587    0.6976 H   0  0  0  0  0  0  0  0  0  0  0  0
   -5.3951    1.8462   -1.0764 H   0  0  0  0  0  0  0  0  0  0  0  0
   -4.9325    0.0744   -0.0058 H   0  0  0  0  0  0  0  0  0  0  0  0
   -4.0222   -2.2193    0.1792 H   0  0  0  0  0  0  0  0  0  0  0  0
  1  2  1  0
  2  3  2  0
  2  4  1  0
  4  5  1  0
  5  6  1  0
  6  7  1  0
  7  8  2  0
  8  9  1  0
  9 10  1  0
 10 11  1  0
 11 12  2  0
 12 13  1  0
 13 14  1  0
 14 15  1  0
 13 16  2  0
 16 17  1  0
 11  7  1  0
 17 10  2  0
  1 18  1  0
  1 19  1  0
  1 20  1  0
  4 21  1  0
  5 22  1  0
  5 23  1  0
  6 24  1  0
  6 25  1  0
  8 26  1  0
  9 27  1  0
 12 28  1  0
 15 29  1  0
 15 30  1  0
 15 31  1  0
 16 32  1  0
 17 33  1  0
M  END
>  <coordinate_phase>  (42) 
ETKDG_before_MMFF

>  <molecule_id>  (42) 
melatonin

>  <seed>  (42) 
20260930

>  <conformer_id>  (42) 
41

$$$$
melatonin_20260930_42
     RDKit          3D

 33 34  0  0  0  0  0  0  0  0999 V2000
    5.1434    1.6631    0.9802 C   0  0  0  0  0  0  0  0  0  0  0  0
    3.7395    1.1849    0.7599 C   0  0  0  0  0  0  0  0  0  0  0  0
    2.8145    1.5690    1.5146 O   0  0  0  0  0  0  0  0  0  0  0  0
    3.4491    0.2956   -0.3023 N   0  0  0  0  0  0  0  0  0  0  0  0
    2.1520   -0.2203   -0.5987 C   0  0  0  0  0  0  0  0  0  0  0  0
    1.5341   -1.0262    0.5243 C   0  0  0  0  0  0  0  0  0  0  0  0
    0.1971   -1.5492    0.1987 C   0  0  0  0  0  0  0  0  0  0  0  0
   -0.0525   -2.8752   -0.1496 C   0  0  0  0  0  0  0  0  0  0  0  0
   -1.3638   -3.0486   -0.3937 N   0  0  0  0  0  0  0  0  0  0  0  0
   -1.9623   -1.8411   -0.2047 C   0  0  0  0  0  0  0  0  0  0  0  0
   -1.0215   -0.9047    0.1602 C   0  0  0  0  0  0  0  0  0  0  0  0
   -1.3790    0.4042    0.4121 C   0  0  0  0  0  0  0  0  0  0  0  0
   -2.7234    0.7589    0.2881 C   0  0  0  0  0  0  0  0  0  0  0  0
   -3.0359    2.0769    0.5498 O   0  0  0  0  0  0  0  0  0  0  0  0
   -4.3198    2.6485    0.4862 C   0  0  0  0  0  0  0  0  0  0  0  0
   -3.6399   -0.2021   -0.0787 C   0  0  0  0  0  0  0  0  0  0  0  0
   -3.2961   -1.5166   -0.3342 C   0  0  0  0  0  0  0  0  0  0  0  0
    5.8799    0.8718    0.7132 H   0  0  0  0  0  0  0  0  0  0  0  0
    5.2607    1.8118    2.0890 H   0  0  0  0  0  0  0  0  0  0  0  0
    5.3643    2.6088    0.4874 H   0  0  0  0  0  0  0  0  0  0  0  0
    4.2750    0.0125   -0.9013 H   0  0  0  0  0  0  0  0  0  0  0  0
    1.4961    0.6215   -0.9201 H   0  0  0  0  0  0  0  0  0  0  0  0
    2.1985   -0.8943   -1.4800 H   0  0  0  0  0  0  0  0  0  0  0  0
    2.2385   -1.8531    0.7464 H   0  0  0  0  0  0  0  0  0  0  0  0
    1.4608   -0.3219    1.3943 H   0  0  0  0  0  0  0  0  0  0  0  0
    0.6864   -3.6878   -0.2254 H   0  0  0  0  0  0  0  0  0  0  0  0
   -1.8402   -3.9388   -0.6753 H   0  0  0  0  0  0  0  0  0  0  0  0
   -0.6217    1.1209    0.6970 H   0  0  0  0  0  0  0  0  0  0  0  0
   -4.3779    3.4051    1.3022 H   0  0  0  0  0  0  0  0  0  0  0  0
   -5.0661    1.8556    0.6599 H   0  0  0  0  0  0  0  0  0  0  0  0
   -4.4899    3.1851   -0.4770 H   0  0  0  0  0  0  0  0  0  0  0  0
   -4.6838    0.0581   -0.1796 H   0  0  0  0  0  0  0  0  0  0  0  0
   -4.0164   -2.2725   -0.6219 H   0  0  0  0  0  0  0  0  0  0  0  0
  1  2  1  0
  2  3  2  0
  2  4  1  0
  4  5  1  0
  5  6  1  0
  6  7  1  0
  7  8  2  0
  8  9  1  0
  9 10  1  0
 10 11  1  0
 11 12  2  0
 12 13  1  0
 13 14  1  0
 14 15  1  0
 13 16  2  0
 16 17  1  0
 11  7  1  0
 17 10  2  0
  1 18  1  0
  1 19  1  0
  1 20  1  0
  4 21  1  0
  5 22  1  0
  5 23  1  0
  6 24  1  0
  6 25  1  0
  8 26  1  0
  9 27  1  0
 12 28  1  0
 15 29  1  0
 15 30  1  0
 15 31  1  0
 16 32  1  0
 17 33  1  0
M  END
>  <coordinate_phase>  (43) 
ETKDG_before_MMFF

>  <molecule_id>  (43) 
melatonin

>  <seed>  (43) 
20260930

>  <conformer_id>  (43) 
42

$$$$
melatonin_20260930_43
     RDKit          3D

 33 34  0  0  0  0  0  0  0  0999 V2000
   -4.5858   -0.8422   -0.0828 C   0  0  0  0  0  0  0  0  0  0  0  0
   -3.4501   -0.8913    0.8957 C   0  0  0  0  0  0  0  0  0  0  0  0
   -3.3152   -1.8413    1.7121 O   0  0  0  0  0  0  0  0  0  0  0  0
   -2.5257    0.1798    0.8675 N   0  0  0  0  0  0  0  0  0  0  0  0
   -1.3756    0.2519    1.7697 C   0  0  0  0  0  0  0  0  0  0  0  0
   -0.5714    1.5127    1.4895 C   0  0  0  0  0  0  0  0  0  0  0  0
   -0.0874    1.4902    0.0670 C   0  0  0  0  0  0  0  0  0  0  0  0
   -0.6864    2.2164   -0.9673 C   0  0  0  0  0  0  0  0  0  0  0  0
    0.0130    1.9300   -2.1033 N   0  0  0  0  0  0  0  0  0  0  0  0
    1.0010    1.0663   -1.7868 C   0  0  0  0  0  0  0  0  0  0  0  0
    0.9715    0.7674   -0.4385 C   0  0  0  0  0  0  0  0  0  0  0  0
    1.9044   -0.1037    0.1044 C   0  0  0  0  0  0  0  0  0  0  0  0
    2.8682   -0.6844   -0.6744 C   0  0  0  0  0  0  0  0  0  0  0  0
    3.8342   -1.5559   -0.2410 O   0  0  0  0  0  0  0  0  0  0  0  0
    3.9749   -1.9789    1.0738 C   0  0  0  0  0  0  0  0  0  0  0  0
    2.8827   -0.3708   -2.0366 C   0  0  0  0  0  0  0  0  0  0  0  0
    1.9619    0.4952   -2.5944 C   0  0  0  0  0  0  0  0  0  0  0  0
   -4.9662    0.2057   -0.1800 H   0  0  0  0  0  0  0  0  0  0  0  0
   -4.2585   -1.2366   -1.0469 H   0  0  0  0  0  0  0  0  0  0  0  0
   -5.4539   -1.4682    0.2546 H   0  0  0  0  0  0  0  0  0  0  0  0
   -2.6669    0.9532    0.1750 H   0  0  0  0  0  0  0  0  0  0  0  0
   -0.7633   -0.6519    1.7542 H   0  0  0  0  0  0  0  0  0  0  0  0
   -1.7871    0.3796    2.7938 H   0  0  0  0  0  0  0  0  0  0  0  0
    0.3269    1.4408    2.1525 H   0  0  0  0  0  0  0  0  0  0  0  0
   -1.1574    2.3996    1.7226 H   0  0  0  0  0  0  0  0  0  0  0  0
   -1.5298    2.8593   -0.8370 H   0  0  0  0  0  0  0  0  0  0  0  0
   -0.2152    2.3393   -3.0505 H   0  0  0  0  0  0  0  0  0  0  0  0
    1.8528   -0.3104    1.1522 H   0  0  0  0  0  0  0  0  0  0  0  0
    4.8962   -1.5482    1.5667 H   0  0  0  0  0  0  0  0  0  0  0  0
    3.1123   -1.7796    1.7186 H   0  0  0  0  0  0  0  0  0  0  0  0
    4.1660   -3.0917    1.1375 H   0  0  0  0  0  0  0  0  0  0  0  0
    3.6297   -0.8088   -2.7034 H   0  0  0  0  0  0  0  0  0  0  0  0
    2.0002    0.7163   -3.6648 H   0  0  0  0  0  0  0  0  0  0  0  0
  1  2  1  0
  2  3  2  0
  2  4  1  0
  4  5  1  0
  5  6  1  0
  6  7  1  0
  7  8  2  0
  8  9  1  0
  9 10  1  0
 10 11  1  0
 11 12  2  0
 12 13  1  0
 13 14  1  0
 14 15  1  0
 13 16  2  0
 16 17  1  0
 11  7  1  0
 17 10  2  0
  1 18  1  0
  1 19  1  0
  1 20  1  0
  4 21  1  0
  5 22  1  0
  5 23  1  0
  6 24  1  0
  6 25  1  0
  8 26  1  0
  9 27  1  0
 12 28  1  0
 15 29  1  0
 15 30  1  0
 15 31  1  0
 16 32  1  0
 17 33  1  0
M  END
>  <coordinate_phase>  (44) 
ETKDG_before_MMFF

>  <molecule_id>  (44) 
melatonin

>  <seed>  (44) 
20260930

>  <conformer_id>  (44) 
43

$$$$
melatonin_20260930_44
     RDKit          3D

 33 34  0  0  0  0  0  0  0  0999 V2000
   -6.0935    0.9403   -0.0839 C   0  0  0  0  0  0  0  0  0  0  0  0
   -4.8735    0.1060   -0.0552 C   0  0  0  0  0  0  0  0  0  0  0  0
   -4.8889   -1.1360    0.1570 O   0  0  0  0  0  0  0  0  0  0  0  0
   -3.5777    0.6881   -0.2785 N   0  0  0  0  0  0  0  0  0  0  0  0
   -2.4497   -0.2446   -0.2395 C   0  0  0  0  0  0  0  0  0  0  0  0
   -1.1300    0.4076   -0.4970 C   0  0  0  0  0  0  0  0  0  0  0  0
   -0.0653   -0.6384   -0.4858 C   0  0  0  0  0  0  0  0  0  0  0  0
   -0.2851   -1.9559   -0.8595 C   0  0  0  0  0  0  0  0  0  0  0  0
    0.8624   -2.6255   -0.7545 N   0  0  0  0  0  0  0  0  0  0  0  0
    1.8186   -1.7671   -0.3186 C   0  0  0  0  0  0  0  0  0  0  0  0
    1.2679   -0.5030   -0.1374 C   0  0  0  0  0  0  0  0  0  0  0  0
    1.9855    0.5756    0.2832 C   0  0  0  0  0  0  0  0  0  0  0  0
    3.3376    0.3823    0.5362 C   0  0  0  0  0  0  0  0  0  0  0  0
    4.0669    1.4945    0.9617 O   0  0  0  0  0  0  0  0  0  0  0  0
    5.4338    1.3654    1.2225 C   0  0  0  0  0  0  0  0  0  0  0  0
    3.9153   -0.8550    0.3651 C   0  0  0  0  0  0  0  0  0  0  0  0
    3.1746   -1.9440   -0.0606 C   0  0  0  0  0  0  0  0  0  0  0  0
   -6.4982    1.1043    0.9322 H   0  0  0  0  0  0  0  0  0  0  0  0
   -6.9188    0.4236   -0.6526 H   0  0  0  0  0  0  0  0  0  0  0  0
   -5.8856    1.9141   -0.5771 H   0  0  0  0  0  0  0  0  0  0  0  0
   -3.4544    1.7009   -0.4546 H   0  0  0  0  0  0  0  0  0  0  0  0
   -2.4600   -0.7153    0.7743 H   0  0  0  0  0  0  0  0  0  0  0  0
   -2.6431   -0.9817   -1.0545 H   0  0  0  0  0  0  0  0  0  0  0  0
   -1.1618    0.9179   -1.4651 H   0  0  0  0  0  0  0  0  0  0  0  0
   -0.8555    1.0995    0.3401 H   0  0  0  0  0  0  0  0  0  0  0  0
   -1.2086   -2.4140   -1.1912 H   0  0  0  0  0  0  0  0  0  0  0  0
    0.9974   -3.6192   -0.9672 H   0  0  0  0  0  0  0  0  0  0  0  0
    1.5104    1.5157    0.4106 H   0  0  0  0  0  0  0  0  0  0  0  0
    5.6350    0.8586    2.1737 H   0  0  0  0  0  0  0  0  0  0  0  0
    5.9540    0.7571    0.4369 H   0  0  0  0  0  0  0  0  0  0  0  0
    5.9262    2.3593    1.1820 H   0  0  0  0  0  0  0  0  0  0  0  0
    4.9748   -1.0090    0.5607 H   0  0  0  0  0  0  0  0  0  0  0  0
    3.5891   -2.9256   -0.2033 H   0  0  0  0  0  0  0  0  0  0  0  0
  1  2  1  0
  2  3  2  0
  2  4  1  0
  4  5  1  0
  5  6  1  0
  6  7  1  0
  7  8  2  0
  8  9  1  0
  9 10  1  0
 10 11  1  0
 11 12  2  0
 12 13  1  0
 13 14  1  0
 14 15  1  0
 13 16  2  0
 16 17  1  0
 11  7  1  0
 17 10  2  0
  1 18  1  0
  1 19  1  0
  1 20  1  0
  4 21  1  0
  5 22  1  0
  5 23  1  0
  6 24  1  0
  6 25  1  0
  8 26  1  0
  9 27  1  0
 12 28  1  0
 15 29  1  0
 15 30  1  0
 15 31  1  0
 16 32  1  0
 17 33  1  0
M  END
>  <coordinate_phase>  (45) 
ETKDG_before_MMFF

>  <molecule_id>  (45) 
melatonin

>  <seed>  (45) 
20260930

>  <conformer_id>  (45) 
44

$$$$
melatonin_20260930_45
     RDKit          3D

 33 34  0  0  0  0  0  0  0  0999 V2000
    5.6977    0.2020    2.0989 C   0  0  0  0  0  0  0  0  0  0  0  0
    4.8559   -0.0507    0.8962 C   0  0  0  0  0  0  0  0  0  0  0  0
    5.4055   -0.3567   -0.1706 O   0  0  0  0  0  0  0  0  0  0  0  0
    3.4370    0.0500    0.9396 N   0  0  0  0  0  0  0  0  0  0  0  0
    2.6029   -0.1936   -0.2254 C   0  0  0  0  0  0  0  0  0  0  0  0
    1.1822   -0.0001    0.1823 C   0  0  0  0  0  0  0  0  0  0  0  0
    0.2009   -0.2181   -0.9185 C   0  0  0  0  0  0  0  0  0  0  0  0
    0.4373   -0.5678   -2.2313 C   0  0  0  0  0  0  0  0  0  0  0  0
   -0.7544   -0.6497   -2.8506 N   0  0  0  0  0  0  0  0  0  0  0  0
   -1.7548   -0.3634   -1.9775 C   0  0  0  0  0  0  0  0  0  0  0  0
   -1.1629   -0.0906   -0.7594 C   0  0  0  0  0  0  0  0  0  0  0  0
   -1.9354    0.2416    0.3512 C   0  0  0  0  0  0  0  0  0  0  0  0
   -3.3097    0.3019    0.2440 C   0  0  0  0  0  0  0  0  0  0  0  0
   -4.0216    0.6376    1.3828 O   0  0  0  0  0  0  0  0  0  0  0  0
   -5.4162    0.7481    1.4676 C   0  0  0  0  0  0  0  0  0  0  0  0
   -3.8985    0.0292   -0.9734 C   0  0  0  0  0  0  0  0  0  0  0  0
   -3.1443   -0.3065   -2.1017 C   0  0  0  0  0  0  0  0  0  0  0  0
    6.3662    1.0567    1.9676 H   0  0  0  0  0  0  0  0  0  0  0  0
    6.2859   -0.6904    2.3828 H   0  0  0  0  0  0  0  0  0  0  0  0
    5.0411    0.4236    2.9848 H   0  0  0  0  0  0  0  0  0  0  0  0
    3.0331    0.3149    1.8808 H   0  0  0  0  0  0  0  0  0  0  0  0
    2.7537   -1.2454   -0.5399 H   0  0  0  0  0  0  0  0  0  0  0  0
    2.9500    0.5222   -0.9944 H   0  0  0  0  0  0  0  0  0  0  0  0
    1.0000   -0.7067    1.0309 H   0  0  0  0  0  0  0  0  0  0  0  0
    1.0467    1.0413    0.5658 H   0  0  0  0  0  0  0  0  0  0  0  0
    1.4183   -0.7385   -2.6557 H   0  0  0  0  0  0  0  0  0  0  0  0
   -0.8999   -0.8958   -3.8526 H   0  0  0  0  0  0  0  0  0  0  0  0
   -1.4571    0.4545    1.3058 H   0  0  0  0  0  0  0  0  0  0  0  0
   -5.6141    1.5686    2.2173 H   0  0  0  0  0  0  0  0  0  0  0  0
   -5.9031    0.9860    0.5050 H   0  0  0  0  0  0  0  0  0  0  0  0
   -5.8530   -0.1652    1.9644 H   0  0  0  0  0  0  0  0  0  0  0  0
   -4.9748    0.0742   -1.0660 H   0  0  0  0  0  0  0  0  0  0  0  0
   -3.6144   -0.5184   -3.0507 H   0  0  0  0  0  0  0  0  0  0  0  0
  1  2  1  0
  2  3  2  0
  2  4  1  0
  4  5  1  0
  5  6  1  0
  6  7  1  0
  7  8  2  0
  8  9  1  0
  9 10  1  0
 10 11  1  0
 11 12  2  0
 12 13  1  0
 13 14  1  0
 14 15  1  0
 13 16  2  0
 16 17  1  0
 11  7  1  0
 17 10  2  0
  1 18  1  0
  1 19  1  0
  1 20  1  0
  4 21  1  0
  5 22  1  0
  5 23  1  0
  6 24  1  0
  6 25  1  0
  8 26  1  0
  9 27  1  0
 12 28  1  0
 15 29  1  0
 15 30  1  0
 15 31  1  0
 16 32  1  0
 17 33  1  0
M  END
>  <coordinate_phase>  (46) 
ETKDG_before_MMFF

>  <molecule_id>  (46) 
melatonin

>  <seed>  (46) 
20260930

>  <conformer_id>  (46) 
45

$$$$
melatonin_20260930_46
     RDKit          3D

 33 34  0  0  0  0  0  0  0  0999 V2000
    4.3519   -1.2953    0.6850 C   0  0  0  0  0  0  0  0  0  0  0  0
    3.2826   -1.1357   -0.3506 C   0  0  0  0  0  0  0  0  0  0  0  0
    3.0991   -2.0046   -1.2593 O   0  0  0  0  0  0  0  0  0  0  0  0
    2.4751    0.0368   -0.2741 N   0  0  0  0  0  0  0  0  0  0  0  0
    1.4064    0.2799   -1.2415 C   0  0  0  0  0  0  0  0  0  0  0  0
    0.7536    1.6137   -0.8637 C   0  0  0  0  0  0  0  0  0  0  0  0
    0.2336    1.4142    0.5215 C   0  0  0  0  0  0  0  0  0  0  0  0
    0.7205    1.8371    1.7199 C   0  0  0  0  0  0  0  0  0  0  0  0
   -0.1123    1.3943    2.6856 N   0  0  0  0  0  0  0  0  0  0  0  0
   -1.1323    0.6897    2.1219 C   0  0  0  0  0  0  0  0  0  0  0  0
   -0.9396    0.6848    0.7437 C   0  0  0  0  0  0  0  0  0  0  0  0
   -1.8410    0.0350   -0.0731 C   0  0  0  0  0  0  0  0  0  0  0  0
   -2.9418   -0.6190    0.4400 C   0  0  0  0  0  0  0  0  0  0  0  0
   -3.8377   -1.2684   -0.4140 O   0  0  0  0  0  0  0  0  0  0  0  0
   -3.5552   -1.2147   -1.8058 C   0  0  0  0  0  0  0  0  0  0  0  0
   -3.1520   -0.6255    1.8201 C   0  0  0  0  0  0  0  0  0  0  0  0
   -2.2403    0.0295    2.6202 C   0  0  0  0  0  0  0  0  0  0  0  0
    5.0224   -0.4030    0.6960 H   0  0  0  0  0  0  0  0  0  0  0  0
    4.9582   -2.1746    0.3705 H   0  0  0  0  0  0  0  0  0  0  0  0
    3.8546   -1.4707    1.6471 H   0  0  0  0  0  0  0  0  0  0  0  0
    2.6705    0.7267    0.5022 H   0  0  0  0  0  0  0  0  0  0  0  0
    0.6339   -0.5057   -1.1076 H   0  0  0  0  0  0  0  0  0  0  0  0
    1.7602    0.2715   -2.2815 H   0  0  0  0  0  0  0  0  0  0  0  0
    1.4922    2.4485   -0.8734 H   0  0  0  0  0  0  0  0  0  0  0  0
   -0.0490    1.8848   -1.5713 H   0  0  0  0  0  0  0  0  0  0  0  0
    1.6220    2.4245    1.8342 H   0  0  0  0  0  0  0  0  0  0  0  0
    0.0051    1.5648    3.7114 H   0  0  0  0  0  0  0  0  0  0  0  0
   -1.6929    0.0321   -1.1409 H   0  0  0  0  0  0  0  0  0  0  0  0
   -2.5897   -1.6965   -2.0721 H   0  0  0  0  0  0  0  0  0  0  0  0
   -4.3636   -1.6838   -2.4038 H   0  0  0  0  0  0  0  0  0  0  0  0
   -3.4589   -0.1435   -2.1415 H   0  0  0  0  0  0  0  0  0  0  0  0
   -4.0243   -1.1451    2.2125 H   0  0  0  0  0  0  0  0  0  0  0  0
   -2.4113    0.0182    3.6742 H   0  0  0  0  0  0  0  0  0  0  0  0
  1  2  1  0
  2  3  2  0
  2  4  1  0
  4  5  1  0
  5  6  1  0
  6  7  1  0
  7  8  2  0
  8  9  1  0
  9 10  1  0
 10 11  1  0
 11 12  2  0
 12 13  1  0
 13 14  1  0
 14 15  1  0
 13 16  2  0
 16 17  1  0
 11  7  1  0
 17 10  2  0
  1 18  1  0
  1 19  1  0
  1 20  1  0
  4 21  1  0
  5 22  1  0
  5 23  1  0
  6 24  1  0
  6 25  1  0
  8 26  1  0
  9 27  1  0
 12 28  1  0
 15 29  1  0
 15 30  1  0
 15 31  1  0
 16 32  1  0
 17 33  1  0
M  END
>  <coordinate_phase>  (47) 
ETKDG_before_MMFF

>  <molecule_id>  (47) 
melatonin

>  <seed>  (47) 
20260930

>  <conformer_id>  (47) 
46

$$$$
melatonin_20260930_47
     RDKit          3D

 33 34  0  0  0  0  0  0  0  0999 V2000
    4.3925    1.2800   -1.4411 C   0  0  0  0  0  0  0  0  0  0  0  0
    3.6340    1.1664   -0.1524 C   0  0  0  0  0  0  0  0  0  0  0  0
    3.7237    2.0886    0.6879 O   0  0  0  0  0  0  0  0  0  0  0  0
    2.8255    0.0003    0.0789 N   0  0  0  0  0  0  0  0  0  0  0  0
    2.0718   -0.1517    1.3162 C   0  0  0  0  0  0  0  0  0  0  0  0
    1.3393   -1.4939    1.2122 C   0  0  0  0  0  0  0  0  0  0  0  0
    0.4241   -1.4976    0.0392 C   0  0  0  0  0  0  0  0  0  0  0  0
    0.5384   -2.0865   -1.1815 C   0  0  0  0  0  0  0  0  0  0  0  0
   -0.5200   -1.8366   -1.9476 N   0  0  0  0  0  0  0  0  0  0  0  0
   -1.3556   -1.0609   -1.2115 C   0  0  0  0  0  0  0  0  0  0  0  0
   -0.7973   -0.8286    0.0380 C   0  0  0  0  0  0  0  0  0  0  0  0
   -1.4273   -0.0680    1.0019 C   0  0  0  0  0  0  0  0  0  0  0  0
   -2.6637    0.4839    0.7097 C   0  0  0  0  0  0  0  0  0  0  0  0
   -3.2582    1.2396    1.7084 O   0  0  0  0  0  0  0  0  0  0  0  0
   -4.5214    1.8463    1.5100 C   0  0  0  0  0  0  0  0  0  0  0  0
   -3.2358    0.2659   -0.5243 C   0  0  0  0  0  0  0  0  0  0  0  0
   -2.5894   -0.5071   -1.4958 C   0  0  0  0  0  0  0  0  0  0  0  0
    4.7158    0.2388   -1.7127 H   0  0  0  0  0  0  0  0  0  0  0  0
    3.7059    1.6983   -2.1874 H   0  0  0  0  0  0  0  0  0  0  0  0
    5.3042    1.8749   -1.2699 H   0  0  0  0  0  0  0  0  0  0  0  0
    2.8170   -0.7113   -0.6853 H   0  0  0  0  0  0  0  0  0  0  0  0
    2.7196   -0.2065    2.2118 H   0  0  0  0  0  0  0  0  0  0  0  0
    1.3641    0.6704    1.4714 H   0  0  0  0  0  0  0  0  0  0  0  0
    2.0992   -2.2919    1.0610 H   0  0  0  0  0  0  0  0  0  0  0  0
    0.8180   -1.6571    2.1564 H   0  0  0  0  0  0  0  0  0  0  0  0
    1.3932   -2.6891   -1.4920 H   0  0  0  0  0  0  0  0  0  0  0  0
   -0.7312   -2.1476   -2.9390 H   0  0  0  0  0  0  0  0  0  0  0  0
   -0.9585    0.0857    1.9563 H   0  0  0  0  0  0  0  0  0  0  0  0
   -5.1968    1.1288    0.9782 H   0  0  0  0  0  0  0  0  0  0  0  0
   -4.4165    2.7384    0.8311 H   0  0  0  0  0  0  0  0  0  0  0  0
   -4.9430    2.1450    2.4941 H   0  0  0  0  0  0  0  0  0  0  0  0
   -4.2045    0.7002   -0.7489 H   0  0  0  0  0  0  0  0  0  0  0  0
   -3.0672   -0.6668   -2.4732 H   0  0  0  0  0  0  0  0  0  0  0  0
  1  2  1  0
  2  3  2  0
  2  4  1  0
  4  5  1  0
  5  6  1  0
  6  7  1  0
  7  8  2  0
  8  9  1  0
  9 10  1  0
 10 11  1  0
 11 12  2  0
 12 13  1  0
 13 14  1  0
 14 15  1  0
 13 16  2  0
 16 17  1  0
 11  7  1  0
 17 10  2  0
  1 18  1  0
  1 19  1  0
  1 20  1  0
  4 21  1  0
  5 22  1  0
  5 23  1  0
  6 24  1  0
  6 25  1  0
  8 26  1  0
  9 27  1  0
 12 28  1  0
 15 29  1  0
 15 30  1  0
 15 31  1  0
 16 32  1  0
 17 33  1  0
M  END
>  <coordinate_phase>  (48) 
ETKDG_before_MMFF

>  <molecule_id>  (48) 
melatonin

>  <seed>  (48) 
20260930

>  <conformer_id>  (48) 
47

$$$$
melatonin_20260930_48
     RDKit          3D

 33 34  0  0  0  0  0  0  0  0999 V2000
   -3.3405    1.1738    2.0950 C   0  0  0  0  0  0  0  0  0  0  0  0
   -3.4299    0.6617    0.7280 C   0  0  0  0  0  0  0  0  0  0  0  0
   -4.5245    0.2458    0.2775 O   0  0  0  0  0  0  0  0  0  0  0  0
   -2.2824    0.6066   -0.1653 N   0  0  0  0  0  0  0  0  0  0  0  0
   -2.5282    0.0827   -1.4613 C   0  0  0  0  0  0  0  0  0  0  0  0
   -1.3155    0.0360   -2.3297 C   0  0  0  0  0  0  0  0  0  0  0  0
   -0.2816   -0.8227   -1.7399 C   0  0  0  0  0  0  0  0  0  0  0  0
   -0.2472   -2.2037   -1.9755 C   0  0  0  0  0  0  0  0  0  0  0  0
    0.7631   -2.7543   -1.2643 N   0  0  0  0  0  0  0  0  0  0  0  0
    1.4066   -1.7903   -0.5621 C   0  0  0  0  0  0  0  0  0  0  0  0
    0.7456   -0.5965   -0.8690 C   0  0  0  0  0  0  0  0  0  0  0  0
    1.2388    0.5418   -0.2856 C   0  0  0  0  0  0  0  0  0  0  0  0
    2.3156    0.5803    0.5654 C   0  0  0  0  0  0  0  0  0  0  0  0
    2.6813    1.8192    1.0662 O   0  0  0  0  0  0  0  0  0  0  0  0
    3.7765    1.9500    1.9475 C   0  0  0  0  0  0  0  0  0  0  0  0
    2.9514   -0.5978    0.8591 C   0  0  0  0  0  0  0  0  0  0  0  0
    2.4931   -1.7937    0.2908 C   0  0  0  0  0  0  0  0  0  0  0  0
   -2.3219    1.4513    2.4148 H   0  0  0  0  0  0  0  0  0  0  0  0
   -3.9625    2.1139    2.1585 H   0  0  0  0  0  0  0  0  0  0  0  0
   -3.7347    0.4201    2.8333 H   0  0  0  0  0  0  0  0  0  0  0  0
   -1.4174    0.9656    0.2485 H   0  0  0  0  0  0  0  0  0  0  0  0
   -3.3891    0.5998   -1.9732 H   0  0  0  0  0  0  0  0  0  0  0  0
   -2.8880   -0.9990   -1.3413 H   0  0  0  0  0  0  0  0  0  0  0  0
   -0.9550    1.1104   -2.3852 H   0  0  0  0  0  0  0  0  0  0  0  0
   -1.5422   -0.2624   -3.3812 H   0  0  0  0  0  0  0  0  0  0  0  0
   -0.9161   -2.7762   -2.6262 H   0  0  0  0  0  0  0  0  0  0  0  0
    1.0320   -3.7818   -1.2431 H   0  0  0  0  0  0  0  0  0  0  0  0
    0.7237    1.4743   -0.5457 H   0  0  0  0  0  0  0  0  0  0  0  0
    3.4398    1.4873    2.9099 H   0  0  0  0  0  0  0  0  0  0  0  0
    4.0730    3.0072    2.0923 H   0  0  0  0  0  0  0  0  0  0  0  0
    4.6685    1.3658    1.6367 H   0  0  0  0  0  0  0  0  0  0  0  0
    3.7984   -0.5811    1.5267 H   0  0  0  0  0  0  0  0  0  0  0  0
    2.9692   -2.7341    0.4987 H   0  0  0  0  0  0  0  0  0  0  0  0
  1  2  1  0
  2  3  2  0
  2  4  1  0
  4  5  1  0
  5  6  1  0
  6  7  1  0
  7  8  2  0
  8  9  1  0
  9 10  1  0
 10 11  1  0
 11 12  2  0
 12 13  1  0
 13 14  1  0
 14 15  1  0
 13 16  2  0
 16 17  1  0
 11  7  1  0
 17 10  2  0
  1 18  1  0
  1 19  1  0
  1 20  1  0
  4 21  1  0
  5 22  1  0
  5 23  1  0
  6 24  1  0
  6 25  1  0
  8 26  1  0
  9 27  1  0
 12 28  1  0
 15 29  1  0
 15 30  1  0
 15 31  1  0
 16 32  1  0
 17 33  1  0
M  END
>  <coordinate_phase>  (49) 
ETKDG_before_MMFF

>  <molecule_id>  (49) 
melatonin

>  <seed>  (49) 
20260930

>  <conformer_id>  (49) 
48

$$$$
