melatonin_20260928_0
     RDKit          3D

 33 34  0  0  0  0  0  0  0  0999 V2000
    5.3849    2.0013    0.0996 C   0  0  0  0  0  0  0  0  0  0  0  0
    4.4130    0.9241   -0.3007 C   0  0  0  0  0  0  0  0  0  0  0  0
    4.7705   -0.2307   -0.5072 O   0  0  0  0  0  0  0  0  0  0  0  0
    3.1080    1.3479   -0.3913 N   0  0  0  0  0  0  0  0  0  0  0  0
    2.0292    0.4330   -0.7216 C   0  0  0  0  0  0  0  0  0  0  0  0
    1.5933   -0.4135    0.4771 C   0  0  0  0  0  0  0  0  0  0  0  0
    0.4121   -1.2750    0.1599 C   0  0  0  0  0  0  0  0  0  0  0  0
    0.4484   -2.5957   -0.2428 C   0  0  0  0  0  0  0  0  0  0  0  0
   -0.8369   -3.0228   -0.4367 N   0  0  0  0  0  0  0  0  0  0  0  0
   -1.7212   -2.0040   -0.1709 C   0  0  0  0  0  0  0  0  0  0  0  0
   -0.9675   -0.8946    0.2089 C   0  0  0  0  0  0  0  0  0  0  0  0
   -1.6484    0.2953    0.5390 C   0  0  0  0  0  0  0  0  0  0  0  0
   -3.0480    0.3458    0.4810 C   0  0  0  0  0  0  0  0  0  0  0  0
   -3.5819    1.5599    0.8245 O   0  0  0  0  0  0  0  0  0  0  0  0
   -4.9992    1.6696    0.8001 C   0  0  0  0  0  0  0  0  0  0  0  0
   -3.7685   -0.7841    0.0962 C   0  0  0  0  0  0  0  0  0  0  0  0
   -3.1183   -1.9803   -0.2364 C   0  0  0  0  0  0  0  0  0  0  0  0
    5.6897    1.8404    1.1369 H   0  0  0  0  0  0  0  0  0  0  0  0
    4.9439    2.9978    0.0081 H   0  0  0  0  0  0  0  0  0  0  0  0
    6.2601    1.9540   -0.5544 H   0  0  0  0  0  0  0  0  0  0  0  0
    2.8669    2.2866   -0.1019 H   0  0  0  0  0  0  0  0  0  0  0  0
    1.1981    1.0448   -1.0897 H   0  0  0  0  0  0  0  0  0  0  0  0
    2.3570   -0.2129   -1.5449 H   0  0  0  0  0  0  0  0  0  0  0  0
    2.4267   -1.0424    0.8145 H   0  0  0  0  0  0  0  0  0  0  0  0
    1.3504    0.2416    1.3234 H   0  0  0  0  0  0  0  0  0  0  0  0
    1.2833   -3.2648   -0.4074 H   0  0  0  0  0  0  0  0  0  0  0  0
   -1.1028   -3.9514   -0.7334 H   0  0  0  0  0  0  0  0  0  0  0  0
   -1.0921    1.1773    0.8412 H   0  0  0  0  0  0  0  0  0  0  0  0
   -5.4613    0.9807    1.5148 H   0  0  0  0  0  0  0  0  0  0  0  0
   -5.3899    1.5133   -0.2108 H   0  0  0  0  0  0  0  0  0  0  0  0
   -5.2607    2.6880    1.1036 H   0  0  0  0  0  0  0  0  0  0  0  0
   -4.8524   -0.7738    0.0421 H   0  0  0  0  0  0  0  0  0  0  0  0
   -3.6866   -2.8555   -0.5343 H   0  0  0  0  0  0  0  0  0  0  0  0
  1  2  1  0
  2  3  2  0
  2  4  1  0
  4  5  1  0
  5  6  1  0
  6  7  1  0
  7  8  2  0
  8  9  1  0
  9 10  1  0
 10 11  1  0
 11 12  2  0
 12 13  1  0
 13 14  1  0
 14 15  1  0
 13 16  2  0
 16 17  1  0
 11  7  1  0
 17 10  2  0
  1 18  1  0
  1 19  1  0
  1 20  1  0
  4 21  1  0
  5 22  1  0
  5 23  1  0
  6 24  1  0
  6 25  1  0
  8 26  1  0
  9 27  1  0
 12 28  1  0
 15 29  1  0
 15 30  1  0
 15 31  1  0
 16 32  1  0
 17 33  1  0
M  END
>  <coordinate_phase>  (1) 
MMFF94_after_optimization_status_retained

>  <molecule_id>  (1) 
melatonin

>  <seed>  (1) 
20260928

>  <conformer_id>  (1) 
0

>  <optimization_status>  (1) 
0

>  <energy_kcal_mol>  (1) 
3.1743027453639208

>  <sasa_A2>  (1) 
481.17478193621906

>  <sasa_orientation_sd_A2>  (1) 
1.557682485941262

>  <sasa_orientation_range_A2>  (1) 
5.4285755541075105

>  <sasa_first_half_vs_all_abs_delta_A2>  (1) 
0.021792213604044264

>  <mass_weighted_Rg_A>  (1) 
3.6133587972980306

>  <unweighted_Rg_A>  (1) 
4.04186609066289

$$$$
melatonin_20260928_1
     RDKit          3D

 33 34  0  0  0  0  0  0  0  0999 V2000
    5.5136    1.2560   -1.1107 C   0  0  0  0  0  0  0  0  0  0  0  0
    4.4646    0.1938   -0.9166 C   0  0  0  0  0  0  0  0  0  0  0  0
    4.5843   -0.9311   -1.3892 O   0  0  0  0  0  0  0  0  0  0  0  0
    3.3774    0.6100   -0.1797 N   0  0  0  0  0  0  0  0  0  0  0  0
    2.2118   -0.2462   -0.0268 C   0  0  0  0  0  0  0  0  0  0  0  0
    1.3942    0.1263    1.2099 C   0  0  0  0  0  0  0  0  0  0  0  0
    0.1561   -0.6999    1.3459 C   0  0  0  0  0  0  0  0  0  0  0  0
    0.0233   -1.8624    2.0801 C   0  0  0  0  0  0  0  0  0  0  0  0
   -1.2609   -2.3152    1.9414 N   0  0  0  0  0  0  0  0  0  0  0  0
   -1.9781   -1.4687    1.1294 C   0  0  0  0  0  0  0  0  0  0  0  0
   -1.1164   -0.4447    0.7403 C   0  0  0  0  0  0  0  0  0  0  0  0
   -1.6168    0.5639   -0.1086 C   0  0  0  0  0  0  0  0  0  0  0  0
   -2.9495    0.5239   -0.5415 C   0  0  0  0  0  0  0  0  0  0  0  0
   -3.3063    1.5625   -1.3606 O   0  0  0  0  0  0  0  0  0  0  0  0
   -4.6420    1.5683   -1.8478 C   0  0  0  0  0  0  0  0  0  0  0  0
   -3.7823   -0.5160   -0.1308 C   0  0  0  0  0  0  0  0  0  0  0  0
   -3.3118   -1.5320    0.7123 C   0  0  0  0  0  0  0  0  0  0  0  0
    5.3882    2.0793   -0.4019 H   0  0  0  0  0  0  0  0  0  0  0  0
    6.5021    0.8164   -0.9505 H   0  0  0  0  0  0  0  0  0  0  0  0
    5.4438    1.6464   -2.1293 H   0  0  0  0  0  0  0  0  0  0  0  0
    3.2378    1.6076   -0.0840 H   0  0  0  0  0  0  0  0  0  0  0  0
    2.5352   -1.2924    0.0280 H   0  0  0  0  0  0  0  0  0  0  0  0
    1.6138   -0.1378   -0.9393 H   0  0  0  0  0  0  0  0  0  0  0  0
    1.1223    1.1888    1.1698 H   0  0  0  0  0  0  0  0  0  0  0  0
    2.0156    0.0102    2.1073 H   0  0  0  0  0  0  0  0  0  0  0  0
    0.7358   -2.4070    2.6857 H   0  0  0  0  0  0  0  0  0  0  0  0
   -1.6330   -3.1515    2.3694 H   0  0  0  0  0  0  0  0  0  0  0  0
   -0.9729    1.3760   -0.4323 H   0  0  0  0  0  0  0  0  0  0  0  0
   -4.8431    0.6835   -2.4607 H   0  0  0  0  0  0  0  0  0  0  0  0
   -4.7608    2.4490   -2.4864 H   0  0  0  0  0  0  0  0  0  0  0  0
   -5.3612    1.6537   -1.0265 H   0  0  0  0  0  0  0  0  0  0  0  0
   -4.8181   -0.5723   -0.4499 H   0  0  0  0  0  0  0  0  0  0  0  0
   -3.9665   -2.3385    1.0264 H   0  0  0  0  0  0  0  0  0  0  0  0
  1  2  1  0
  2  3  2  0
  2  4  1  0
  4  5  1  0
  5  6  1  0
  6  7  1  0
  7  8  2  0
  8  9  1  0
  9 10  1  0
 10 11  1  0
 11 12  2  0
 12 13  1  0
 13 14  1  0
 14 15  1  0
 13 16  2  0
 16 17  1  0
 11  7  1  0
 17 10  2  0
  1 18  1  0
  1 19  1  0
  1 20  1  0
  4 21  1  0
  5 22  1  0
  5 23  1  0
  6 24  1  0
  6 25  1  0
  8 26  1  0
  9 27  1  0
 12 28  1  0
 15 29  1  0
 15 30  1  0
 15 31  1  0
 16 32  1  0
 17 33  1  0
M  END
>  <coordinate_phase>  (2) 
MMFF94_after_optimization_status_retained

>  <molecule_id>  (2) 
melatonin

>  <seed>  (2) 
20260928

>  <conformer_id>  (2) 
1

>  <optimization_status>  (2) 
0

>  <energy_kcal_mol>  (2) 
4.585563216958177

>  <sasa_A2>  (2) 
485.96529762388633

>  <sasa_orientation_sd_A2>  (2) 
1.2210955634872858

>  <sasa_orientation_range_A2>  (2) 
5.001873206847677

>  <sasa_first_half_vs_all_abs_delta_A2>  (2) 
0.24191040032576439

>  <mass_weighted_Rg_A>  (2) 
3.63213837634927

>  <unweighted_Rg_A>  (2) 
4.049209853804943

$$$$
melatonin_20260928_2
     RDKit          3D

 33 34  0  0  0  0  0  0  0  0999 V2000
    4.5116    2.1142    0.3611 C   0  0  0  0  0  0  0  0  0  0  0  0
    3.1744    1.4258    0.4119 C   0  0  0  0  0  0  0  0  0  0  0  0
    2.1352    2.0361    0.6423 O   0  0  0  0  0  0  0  0  0  0  0  0
    3.2253    0.0737    0.1606 N   0  0  0  0  0  0  0  0  0  0  0  0
    2.0189   -0.7337    0.1311 C   0  0  0  0  0  0  0  0  0  0  0  0
    1.2615   -0.6007   -1.1931 C   0  0  0  0  0  0  0  0  0  0  0  0
   -0.0385   -1.3393   -1.1781 C   0  0  0  0  0  0  0  0  0  0  0  0
   -0.3062   -2.5637   -1.7577 C   0  0  0  0  0  0  0  0  0  0  0  0
   -1.6169   -2.8767   -1.5121 N   0  0  0  0  0  0  0  0  0  0  0  0
   -2.2155   -1.8806   -0.7771 C   0  0  0  0  0  0  0  0  0  0  0  0
   -1.2510   -0.9000   -0.5543 C   0  0  0  0  0  0  0  0  0  0  0  0
   -1.6075    0.2504    0.1853 C   0  0  0  0  0  0  0  0  0  0  0  0
   -2.9110    0.3800    0.6774 C   0  0  0  0  0  0  0  0  0  0  0  0
   -3.3852    1.4373    1.4089 O   0  0  0  0  0  0  0  0  0  0  0  0
   -2.4583    2.4769    1.7015 C   0  0  0  0  0  0  0  0  0  0  0  0
   -3.8495   -0.6238    0.4317 C   0  0  0  0  0  0  0  0  0  0  0  0
   -3.5246   -1.7726   -0.2987 C   0  0  0  0  0  0  0  0  0  0  0  0
    4.5716    2.7115   -0.5524 H   0  0  0  0  0  0  0  0  0  0  0  0
    4.6124    2.7639    1.2349 H   0  0  0  0  0  0  0  0  0  0  0  0
    5.3365    1.3965    0.3719 H   0  0  0  0  0  0  0  0  0  0  0  0
    4.0977   -0.3511   -0.1247 H   0  0  0  0  0  0  0  0  0  0  0  0
    1.3857   -0.4344    0.9746 H   0  0  0  0  0  0  0  0  0  0  0  0
    2.3209   -1.7737    0.2977 H   0  0  0  0  0  0  0  0  0  0  0  0
    1.0698    0.4559   -1.4181 H   0  0  0  0  0  0  0  0  0  0  0  0
    1.8922   -0.9713   -2.0114 H   0  0  0  0  0  0  0  0  0  0  0  0
    0.3213   -3.2365   -2.3269 H   0  0  0  0  0  0  0  0  0  0  0  0
   -2.0848   -3.7163   -1.8238 H   0  0  0  0  0  0  0  0  0  0  0  0
   -0.8511    1.0090    0.3542 H   0  0  0  0  0  0  0  0  0  0  0  0
   -2.1035    2.9592    0.7846 H   0  0  0  0  0  0  0  0  0  0  0  0
   -1.6230    2.1043    2.3037 H   0  0  0  0  0  0  0  0  0  0  0  0
   -2.9824    3.2338    2.2931 H   0  0  0  0  0  0  0  0  0  0  0  0
   -4.8602   -0.5106    0.8184 H   0  0  0  0  0  0  0  0  0  0  0  0
   -4.2659   -2.5431   -0.4808 H   0  0  0  0  0  0  0  0  0  0  0  0
  1  2  1  0
  2  3  2  0
  2  4  1  0
  4  5  1  0
  5  6  1  0
  6  7  1  0
  7  8  2  0
  8  9  1  0
  9 10  1  0
 10 11  1  0
 11 12  2  0
 12 13  1  0
 13 14  1  0
 14 15  1  0
 13 16  2  0
 16 17  1  0
 11  7  1  0
 17 10  2  0
  1 18  1  0
  1 19  1  0
  1 20  1  0
  4 21  1  0
  5 22  1  0
  5 23  1  0
  6 24  1  0
  6 25  1  0
  8 26  1  0
  9 27  1  0
 12 28  1  0
 15 29  1  0
 15 30  1  0
 15 31  1  0
 16 32  1  0
 17 33  1  0
M  END
>  <coordinate_phase>  (3) 
MMFF94_after_optimization_status_retained

>  <molecule_id>  (3) 
melatonin

>  <seed>  (3) 
20260928

>  <conformer_id>  (3) 
2

>  <optimization_status>  (3) 
0

>  <energy_kcal_mol>  (3) 
2.0868556535717007

>  <sasa_A2>  (3) 
466.62160943667214

>  <sasa_orientation_sd_A2>  (3) 
2.250401387246532

>  <sasa_orientation_range_A2>  (3) 
11.124676600088264

>  <sasa_first_half_vs_all_abs_delta_A2>  (3) 
0.74610614582366

>  <mass_weighted_Rg_A>  (3) 
3.2825003278654856

>  <unweighted_Rg_A>  (3) 
3.675040950323243

$$$$
melatonin_20260928_3
     RDKit          3D

 33 34  0  0  0  0  0  0  0  0999 V2000
   -5.4682    1.7472   -0.2387 C   0  0  0  0  0  0  0  0  0  0  0  0
   -4.4772    0.6467    0.0293 C   0  0  0  0  0  0  0  0  0  0  0  0
   -4.7804   -0.5381   -0.0613 O   0  0  0  0  0  0  0  0  0  0  0  0
   -3.2183    1.0903    0.3601 N   0  0  0  0  0  0  0  0  0  0  0  0
   -2.1242    0.1676    0.6078 C   0  0  0  0  0  0  0  0  0  0  0  0
   -1.5124   -0.3745   -0.6866 C   0  0  0  0  0  0  0  0  0  0  0  0
   -0.3187   -1.2382   -0.4283 C   0  0  0  0  0  0  0  0  0  0  0  0
   -0.3131   -2.6157   -0.3273 C   0  0  0  0  0  0  0  0  0  0  0  0
    0.9694   -3.0249   -0.0826 N   0  0  0  0  0  0  0  0  0  0  0  0
    1.8103   -1.9388   -0.0176 C   0  0  0  0  0  0  0  0  0  0  0  0
    1.0316   -0.8031   -0.2336 C   0  0  0  0  0  0  0  0  0  0  0  0
    1.6664    0.4560   -0.2176 C   0  0  0  0  0  0  0  0  0  0  0  0
    3.0462    0.5468    0.0117 C   0  0  0  0  0  0  0  0  0  0  0  0
    3.5350    1.8267    0.0029 O   0  0  0  0  0  0  0  0  0  0  0  0
    4.9322    1.9833    0.2146 C   0  0  0  0  0  0  0  0  0  0  0  0
    3.7927   -0.6114    0.2243 C   0  0  0  0  0  0  0  0  0  0  0  0
    3.1885   -1.8760    0.2130 C   0  0  0  0  0  0  0  0  0  0  0  0
   -5.6520    1.8086   -1.3145 H   0  0  0  0  0  0  0  0  0  0  0  0
   -5.1033    2.7150    0.1163 H   0  0  0  0  0  0  0  0  0  0  0  0
   -6.4023    1.5221    0.2836 H   0  0  0  0  0  0  0  0  0  0  0  0
   -3.0083    2.0784    0.3102 H   0  0  0  0  0  0  0  0  0  0  0  0
   -1.3766    0.7144    1.1932 H   0  0  0  0  0  0  0  0  0  0  0  0
   -2.4946   -0.6570    1.2285 H   0  0  0  0  0  0  0  0  0  0  0  0
   -1.2245    0.4610   -1.3375 H   0  0  0  0  0  0  0  0  0  0  0  0
   -2.2645   -0.9448   -1.2462 H   0  0  0  0  0  0  0  0  0  0  0  0
   -1.1165   -3.3366   -0.4090 H   0  0  0  0  0  0  0  0  0  0  0  0
    1.2612   -3.9850    0.0354 H   0  0  0  0  0  0  0  0  0  0  0  0
    1.0900    1.3608   -0.3847 H   0  0  0  0  0  0  0  0  0  0  0  0
    5.1589    3.0529    0.1707 H   0  0  0  0  0  0  0  0  0  0  0  0
    5.2241    1.6220    1.2062 H   0  0  0  0  0  0  0  0  0  0  0  0
    5.5093    1.4884   -0.5735 H   0  0  0  0  0  0  0  0  0  0  0  0
    4.8622   -0.5713    0.4047 H   0  0  0  0  0  0  0  0  0  0  0  0
    3.7769   -2.7727    0.3787 H   0  0  0  0  0  0  0  0  0  0  0  0
  1  2  1  0
  2  3  2  0
  2  4  1  0
  4  5  1  0
  5  6  1  0
  6  7  1  0
  7  8  2  0
  8  9  1  0
  9 10  1  0
 10 11  1  0
 11 12  2  0
 12 13  1  0
 13 14  1  0
 14 15  1  0
 13 16  2  0
 16 17  1  0
 11  7  1  0
 17 10  2  0
  1 18  1  0
  1 19  1  0
  1 20  1  0
  4 21  1  0
  5 22  1  0
  5 23  1  0
  6 24  1  0
  6 25  1  0
  8 26  1  0
  9 27  1  0
 12 28  1  0
 15 29  1  0
 15 30  1  0
 15 31  1  0
 16 32  1  0
 17 33  1  0
M  END
>  <coordinate_phase>  (4) 
MMFF94_after_optimization_status_retained

>  <molecule_id>  (4) 
melatonin

>  <seed>  (4) 
20260928

>  <conformer_id>  (4) 
3

>  <optimization_status>  (4) 
0

>  <energy_kcal_mol>  (4) 
3.174302745157135

>  <sasa_A2>  (4) 
481.5055832055825

>  <sasa_orientation_sd_A2>  (4) 
2.1266646225306167

>  <sasa_orientation_range_A2>  (4) 
10.757184568608409

>  <sasa_first_half_vs_all_abs_delta_A2>  (4) 
0.313136175266834

>  <mass_weighted_Rg_A>  (4) 
3.613358812872142

>  <unweighted_Rg_A>  (4) 
4.0418663001718675

$$$$
melatonin_20260928_4
     RDKit          3D

 33 34  0  0  0  0  0  0  0  0999 V2000
    3.4567    1.9039   -0.7668 C   0  0  0  0  0  0  0  0  0  0  0  0
    3.6673    0.5753   -0.0914 C   0  0  0  0  0  0  0  0  0  0  0  0
    4.7861    0.1467    0.1706 O   0  0  0  0  0  0  0  0  0  0  0  0
    2.5016   -0.1005    0.1871 N   0  0  0  0  0  0  0  0  0  0  0  0
    2.5333   -1.4614    0.6960 C   0  0  0  0  0  0  0  0  0  0  0  0
    1.2147   -1.8836    1.3487 C   0  0  0  0  0  0  0  0  0  0  0  0
    0.0719   -1.9472    0.3795 C   0  0  0  0  0  0  0  0  0  0  0  0
   -0.2614   -3.0210   -0.4235 C   0  0  0  0  0  0  0  0  0  0  0  0
   -1.3572   -2.6787   -1.1688 N   0  0  0  0  0  0  0  0  0  0  0  0
   -1.7496   -1.3943   -0.8741 C   0  0  0  0  0  0  0  0  0  0  0  0
   -0.8792   -0.9124    0.1018 C   0  0  0  0  0  0  0  0  0  0  0  0
   -1.0755    0.3983    0.5843 C   0  0  0  0  0  0  0  0  0  0  0  0
   -2.1205    1.1854    0.0816 C   0  0  0  0  0  0  0  0  0  0  0  0
   -2.1938    2.4388    0.6290 O   0  0  0  0  0  0  0  0  0  0  0  0
   -3.2635    3.2695    0.1963 C   0  0  0  0  0  0  0  0  0  0  0  0
   -2.9699    0.6699   -0.8961 C   0  0  0  0  0  0  0  0  0  0  0  0
   -2.8015   -0.6306   -1.3907 C   0  0  0  0  0  0  0  0  0  0  0  0
    4.1046    2.6501   -0.2986 H   0  0  0  0  0  0  0  0  0  0  0  0
    2.4214    2.2435   -0.6715 H   0  0  0  0  0  0  0  0  0  0  0  0
    3.7065    1.8104   -1.8268 H   0  0  0  0  0  0  0  0  0  0  0  0
    1.6735    0.1735   -0.3295 H   0  0  0  0  0  0  0  0  0  0  0  0
    2.7841   -2.1170   -0.1461 H   0  0  0  0  0  0  0  0  0  0  0  0
    3.3445   -1.5404    1.4287 H   0  0  0  0  0  0  0  0  0  0  0  0
    0.9680   -1.1943    2.1654 H   0  0  0  0  0  0  0  0  0  0  0  0
    1.3465   -2.8728    1.8047 H   0  0  0  0  0  0  0  0  0  0  0  0
    0.1895   -3.9993   -0.5275 H   0  0  0  0  0  0  0  0  0  0  0  0
   -1.8148   -3.2783   -1.8416 H   0  0  0  0  0  0  0  0  0  0  0  0
   -0.4196    0.8037    1.3499 H   0  0  0  0  0  0  0  0  0  0  0  0
   -3.1809    3.4936   -0.8723 H   0  0  0  0  0  0  0  0  0  0  0  0
   -4.2339    2.8210    0.4335 H   0  0  0  0  0  0  0  0  0  0  0  0
   -3.1927    4.2161    0.7408 H   0  0  0  0  0  0  0  0  0  0  0  0
   -3.7868    1.2571   -1.3037 H   0  0  0  0  0  0  0  0  0  0  0  0
   -3.4693   -1.0250   -2.1499 H   0  0  0  0  0  0  0  0  0  0  0  0
  1  2  1  0
  2  3  2  0
  2  4  1  0
  4  5  1  0
  5  6  1  0
  6  7  1  0
  7  8  2  0
  8  9  1  0
  9 10  1  0
 10 11  1  0
 11 12  2  0
 12 13  1  0
 13 14  1  0
 14 15  1  0
 13 16  2  0
 16 17  1  0
 11  7  1  0
 17 10  2  0
  1 18  1  0
  1 19  1  0
  1 20  1  0
  4 21  1  0
  5 22  1  0
  5 23  1  0
  6 24  1  0
  6 25  1  0
  8 26  1  0
  9 27  1  0
 12 28  1  0
 15 29  1  0
 15 30  1  0
 15 31  1  0
 16 32  1  0
 17 33  1  0
M  END
>  <coordinate_phase>  (5) 
MMFF94_after_optimization_status_retained

>  <molecule_id>  (5) 
melatonin

>  <seed>  (5) 
20260928

>  <conformer_id>  (5) 
4

>  <optimization_status>  (5) 
0

>  <energy_kcal_mol>  (5) 
1.7485570828696968

>  <sasa_A2>  (5) 
471.60211523978614

>  <sasa_orientation_sd_A2>  (5) 
1.2845587862662655

>  <sasa_orientation_range_A2>  (5) 
4.631399582223025

>  <sasa_first_half_vs_all_abs_delta_A2>  (5) 
0.5108028034956646

>  <mass_weighted_Rg_A>  (5) 
3.228889837839393

>  <unweighted_Rg_A>  (5) 
3.5777719877979273

$$$$
melatonin_20260928_5
     RDKit          3D

 33 34  0  0  0  0  0  0  0  0999 V2000
    5.1728    1.7154   -0.5562 C   0  0  0  0  0  0  0  0  0  0  0  0
    4.2112    0.5902   -0.2835 C   0  0  0  0  0  0  0  0  0  0  0  0
    4.5156   -0.3710    0.4145 O   0  0  0  0  0  0  0  0  0  0  0  0
    2.9752    0.7506   -0.8651 N   0  0  0  0  0  0  0  0  0  0  0  0
    1.9137   -0.2237   -0.6818 C   0  0  0  0  0  0  0  0  0  0  0  0
    1.2189   -0.0851    0.6755 C   0  0  0  0  0  0  0  0  0  0  0  0
    0.0643   -1.0261    0.8157 C   0  0  0  0  0  0  0  0  0  0  0  0
    0.1090   -2.2919    1.3668 C   0  0  0  0  0  0  0  0  0  0  0  0
   -1.1456   -2.8335    1.3058 N   0  0  0  0  0  0  0  0  0  0  0  0
   -2.0180   -1.9463    0.7207 C   0  0  0  0  0  0  0  0  0  0  0  0
   -1.2899   -0.7995    0.4052 C   0  0  0  0  0  0  0  0  0  0  0  0
   -1.9623    0.2808   -0.2112 C   0  0  0  0  0  0  0  0  0  0  0  0
   -3.3307    0.1779   -0.4896 C   0  0  0  0  0  0  0  0  0  0  0  0
   -4.1010    1.1444   -1.0806 O   0  0  0  0  0  0  0  0  0  0  0  0
   -3.4582    2.3703   -1.4041 C   0  0  0  0  0  0  0  0  0  0  0  0
   -4.0219   -0.9889   -0.1601 C   0  0  0  0  0  0  0  0  0  0  0  0
   -3.3837   -2.0728    0.4512 C   0  0  0  0  0  0  0  0  0  0  0  0
    5.2871    2.3154    0.3503 H   0  0  0  0  0  0  0  0  0  0  0  0
    6.1402    1.2963   -0.8466 H   0  0  0  0  0  0  0  0  0  0  0  0
    4.8223    2.3595   -1.3674 H   0  0  0  0  0  0  0  0  0  0  0  0
    2.7621    1.6077   -1.3575 H   0  0  0  0  0  0  0  0  0  0  0  0
    2.3386   -1.2286   -0.7917 H   0  0  0  0  0  0  0  0  0  0  0  0
    1.2010   -0.0729   -1.5004 H   0  0  0  0  0  0  0  0  0  0  0  0
    1.9376   -0.2641    1.4850 H   0  0  0  0  0  0  0  0  0  0  0  0
    0.8696    0.9468    0.8081 H   0  0  0  0  0  0  0  0  0  0  0  0
    0.9309   -2.8506    1.7961 H   0  0  0  0  0  0  0  0  0  0  0  0
   -1.4003   -3.7527    1.6396 H   0  0  0  0  0  0  0  0  0  0  0  0
   -1.3951    1.1703   -0.4534 H   0  0  0  0  0  0  0  0  0  0  0  0
   -2.6678    2.2172   -2.1464 H   0  0  0  0  0  0  0  0  0  0  0  0
   -4.2069    3.0334   -1.8481 H   0  0  0  0  0  0  0  0  0  0  0  0
   -3.0689    2.8619   -0.5064 H   0  0  0  0  0  0  0  0  0  0  0  0
   -5.0849   -1.0577   -0.3820 H   0  0  0  0  0  0  0  0  0  0  0  0
   -3.9350   -2.9724    0.7032 H   0  0  0  0  0  0  0  0  0  0  0  0
  1  2  1  0
  2  3  2  0
  2  4  1  0
  4  5  1  0
  5  6  1  0
  6  7  1  0
  7  8  2  0
  8  9  1  0
  9 10  1  0
 10 11  1  0
 11 12  2  0
 12 13  1  0
 13 14  1  0
 14 15  1  0
 13 16  2  0
 16 17  1  0
 11  7  1  0
 17 10  2  0
  1 18  1  0
  1 19  1  0
  1 20  1  0
  4 21  1  0
  5 22  1  0
  5 23  1  0
  6 24  1  0
  6 25  1  0
  8 26  1  0
  9 27  1  0
 12 28  1  0
 15 29  1  0
 15 30  1  0
 15 31  1  0
 16 32  1  0
 17 33  1  0
M  END
>  <coordinate_phase>  (6) 
MMFF94_after_optimization_status_retained

>  <molecule_id>  (6) 
melatonin

>  <seed>  (6) 
20260928

>  <conformer_id>  (6) 
5

>  <optimization_status>  (6) 
0

>  <energy_kcal_mol>  (6) 
3.3516358490998215

>  <sasa_A2>  (6) 
481.14843480639547

>  <sasa_orientation_sd_A2>  (6) 
1.3713510429111384

>  <sasa_orientation_range_A2>  (6) 
6.120769972712992

>  <sasa_first_half_vs_all_abs_delta_A2>  (6) 
0.489940787056355

>  <mass_weighted_Rg_A>  (6) 
3.537448078355149

>  <unweighted_Rg_A>  (6) 
3.8529425407875832

$$$$
melatonin_20260928_6
     RDKit          3D

 33 34  0  0  0  0  0  0  0  0999 V2000
    2.9641   -2.1177    1.6970 C   0  0  0  0  0  0  0  0  0  0  0  0
    3.3384   -1.5960    0.3356 C   0  0  0  0  0  0  0  0  0  0  0  0
    4.4463   -1.7872   -0.1544 O   0  0  0  0  0  0  0  0  0  0  0  0
    2.3357   -0.8883   -0.2863 N   0  0  0  0  0  0  0  0  0  0  0  0
    2.5831   -0.1877   -1.5352 C   0  0  0  0  0  0  0  0  0  0  0  0
    1.2961    0.1596   -2.2878 C   0  0  0  0  0  0  0  0  0  0  0  0
    0.4316    1.1410   -1.5540 C   0  0  0  0  0  0  0  0  0  0  0  0
    0.5402    2.5177   -1.5945 C   0  0  0  0  0  0  0  0  0  0  0  0
   -0.4237    3.0508   -0.7819 N   0  0  0  0  0  0  0  0  0  0  0  0
   -1.1638    2.0477   -0.2019 C   0  0  0  0  0  0  0  0  0  0  0  0
   -0.6585    0.8381   -0.6750 C   0  0  0  0  0  0  0  0  0  0  0  0
   -1.2584   -0.3576   -0.2281 C   0  0  0  0  0  0  0  0  0  0  0  0
   -2.3311   -0.3142    0.6729 C   0  0  0  0  0  0  0  0  0  0  0  0
   -2.8144   -1.5445    1.0315 O   0  0  0  0  0  0  0  0  0  0  0  0
   -3.9357   -1.5669    1.9055 C   0  0  0  0  0  0  0  0  0  0  0  0
   -2.8082    0.9148    1.1261 C   0  0  0  0  0  0  0  0  0  0  0  0
   -2.2345    2.1188    0.6953 C   0  0  0  0  0  0  0  0  0  0  0  0
    3.3022   -3.1536    1.7887 H   0  0  0  0  0  0  0  0  0  0  0  0
    3.4461   -1.5025    2.4612 H   0  0  0  0  0  0  0  0  0  0  0  0
    1.8815   -2.0975    1.8514 H   0  0  0  0  0  0  0  0  0  0  0  0
    1.5938   -0.5244    0.3010 H   0  0  0  0  0  0  0  0  0  0  0  0
    3.2170   -0.8185   -2.1688 H   0  0  0  0  0  0  0  0  0  0  0  0
    3.1541    0.7162   -1.2927 H   0  0  0  0  0  0  0  0  0  0  0  0
    1.5610    0.5836   -3.2645 H   0  0  0  0  0  0  0  0  0  0  0  0
    0.7263   -0.7556   -2.4896 H   0  0  0  0  0  0  0  0  0  0  0  0
    1.2227    3.1626   -2.1327 H   0  0  0  0  0  0  0  0  0  0  0  0
   -0.5732    4.0380   -0.6253 H   0  0  0  0  0  0  0  0  0  0  0  0
   -0.8941   -1.3183   -0.5817 H   0  0  0  0  0  0  0  0  0  0  0  0
   -4.2086   -2.6134    2.0722 H   0  0  0  0  0  0  0  0  0  0  0  0
   -3.6861   -1.1294    2.8778 H   0  0  0  0  0  0  0  0  0  0  0  0
   -4.7987   -1.0656    1.4550 H   0  0  0  0  0  0  0  0  0  0  0  0
   -3.6369    0.9783    1.8241 H   0  0  0  0  0  0  0  0  0  0  0  0
   -2.6142    3.0714    1.0510 H   0  0  0  0  0  0  0  0  0  0  0  0
  1  2  1  0
  2  3  2  0
  2  4  1  0
  4  5  1  0
  5  6  1  0
  6  7  1  0
  7  8  2  0
  8  9  1  0
  9 10  1  0
 10 11  1  0
 11 12  2  0
 12 13  1  0
 13 14  1  0
 14 15  1  0
 13 16  2  0
 16 17  1  0
 11  7  1  0
 17 10  2  0
  1 18  1  0
  1 19  1  0
  1 20  1  0
  4 21  1  0
  5 22  1  0
  5 23  1  0
  6 24  1  0
  6 25  1  0
  8 26  1  0
  9 27  1  0
 12 28  1  0
 15 29  1  0
 15 30  1  0
 15 31  1  0
 16 32  1  0
 17 33  1  0
M  END
>  <coordinate_phase>  (7) 
MMFF94_after_optimization_status_retained

>  <molecule_id>  (7) 
melatonin

>  <seed>  (7) 
20260928

>  <conformer_id>  (7) 
6

>  <optimization_status>  (7) 
0

>  <energy_kcal_mol>  (7) 
1.7485570864692255

>  <sasa_A2>  (7) 
471.96071853853897

>  <sasa_orientation_sd_A2>  (7) 
1.5503463947472493

>  <sasa_orientation_range_A2>  (7) 
6.765390980989821

>  <sasa_first_half_vs_all_abs_delta_A2>  (7) 
0.149826049675994

>  <mass_weighted_Rg_A>  (7) 
3.228887883881749

>  <unweighted_Rg_A>  (7) 
3.5777698754681

$$$$
melatonin_20260928_7
     RDKit          3D

 33 34  0  0  0  0  0  0  0  0999 V2000
   -4.6044    0.6733   -1.5640 C   0  0  0  0  0  0  0  0  0  0  0  0
   -3.9389   -0.5704   -1.0386 C   0  0  0  0  0  0  0  0  0  0  0  0
   -4.2675   -1.6915   -1.4116 O   0  0  0  0  0  0  0  0  0  0  0  0
   -2.9412   -0.3264   -0.1226 N   0  0  0  0  0  0  0  0  0  0  0  0
   -2.0874   -1.4032    0.3505 C   0  0  0  0  0  0  0  0  0  0  0  0
   -1.3802   -1.0622    1.6643 C   0  0  0  0  0  0  0  0  0  0  0  0
   -0.4531    0.1122    1.5572 C   0  0  0  0  0  0  0  0  0  0  0  0
   -0.6764    1.3797    2.0609 C   0  0  0  0  0  0  0  0  0  0  0  0
    0.4071    2.1602    1.7610 N   0  0  0  0  0  0  0  0  0  0  0  0
    1.3392    1.4301    1.0624 C   0  0  0  0  0  0  0  0  0  0  0  0
    0.8316    0.1393    0.9245 C   0  0  0  0  0  0  0  0  0  0  0  0
    1.6135   -0.8169    0.2442 C   0  0  0  0  0  0  0  0  0  0  0  0
    2.8650   -0.4619   -0.2780 C   0  0  0  0  0  0  0  0  0  0  0  0
    3.5186   -1.4831   -0.9154 O   0  0  0  0  0  0  0  0  0  0  0  0
    4.7942   -1.1865   -1.4686 C   0  0  0  0  0  0  0  0  0  0  0  0
    3.3387    0.8399   -0.1226 C   0  0  0  0  0  0  0  0  0  0  0  0
    2.5848    1.8099    0.5517 C   0  0  0  0  0  0  0  0  0  0  0  0
   -4.3763    1.5445   -0.9435 H   0  0  0  0  0  0  0  0  0  0  0  0
   -4.2589    0.8606   -2.5839 H   0  0  0  0  0  0  0  0  0  0  0  0
   -5.6882    0.5273   -1.5617 H   0  0  0  0  0  0  0  0  0  0  0  0
   -2.5388    0.6033   -0.1090 H   0  0  0  0  0  0  0  0  0  0  0  0
   -1.3656   -1.6156   -0.4462 H   0  0  0  0  0  0  0  0  0  0  0  0
   -2.6983   -2.3026    0.4882 H   0  0  0  0  0  0  0  0  0  0  0  0
   -2.1312   -0.8616    2.4392 H   0  0  0  0  0  0  0  0  0  0  0  0
   -0.8084   -1.9357    2.0009 H   0  0  0  0  0  0  0  0  0  0  0  0
   -1.5115    1.7877    2.6155 H   0  0  0  0  0  0  0  0  0  0  0  0
    0.5163    3.1314    2.0187 H   0  0  0  0  0  0  0  0  0  0  0  0
    1.2517   -1.8337    0.1215 H   0  0  0  0  0  0  0  0  0  0  0  0
    5.1757   -2.0990   -1.9370 H   0  0  0  0  0  0  0  0  0  0  0  0
    4.7186   -0.4198   -2.2468 H   0  0  0  0  0  0  0  0  0  0  0  0
    5.5039   -0.8912   -0.6887 H   0  0  0  0  0  0  0  0  0  0  0  0
    4.3042    1.1418   -0.5157 H   0  0  0  0  0  0  0  0  0  0  0  0
    2.9632    2.8201    0.6713 H   0  0  0  0  0  0  0  0  0  0  0  0
  1  2  1  0
  2  3  2  0
  2  4  1  0
  4  5  1  0
  5  6  1  0
  6  7  1  0
  7  8  2  0
  8  9  1  0
  9 10  1  0
 10 11  1  0
 11 12  2  0
 12 13  1  0
 13 14  1  0
 14 15  1  0
 13 16  2  0
 16 17  1  0
 11  7  1  0
 17 10  2  0
  1 18  1  0
  1 19  1  0
  1 20  1  0
  4 21  1  0
  5 22  1  0
  5 23  1  0
  6 24  1  0
  6 25  1  0
  8 26  1  0
  9 27  1  0
 12 28  1  0
 15 29  1  0
 15 30  1  0
 15 31  1  0
 16 32  1  0
 17 33  1  0
M  END
>  <coordinate_phase>  (8) 
MMFF94_after_optimization_status_retained

>  <molecule_id>  (8) 
melatonin

>  <seed>  (8) 
20260928

>  <conformer_id>  (8) 
7

>  <optimization_status>  (8) 
0

>  <energy_kcal_mol>  (8) 
2.6355160241374413

>  <sasa_A2>  (8) 
478.91606836633906

>  <sasa_orientation_sd_A2>  (8) 
2.2965603785850135

>  <sasa_orientation_range_A2>  (8) 
10.822235689731713

>  <sasa_first_half_vs_all_abs_delta_A2>  (8) 
0.2339203144942985

>  <mass_weighted_Rg_A>  (8) 
3.404607048496356

>  <unweighted_Rg_A>  (8) 
3.790924935407877

$$$$
melatonin_20260928_8
     RDKit          3D

 33 34  0  0  0  0  0  0  0  0999 V2000
    3.3767   -2.1330    0.1258 C   0  0  0  0  0  0  0  0  0  0  0  0
    3.5911   -0.6917    0.5032 C   0  0  0  0  0  0  0  0  0  0  0  0
    4.6953   -0.2550    0.8102 O   0  0  0  0  0  0  0  0  0  0  0  0
    2.4481    0.0730    0.4596 N   0  0  0  0  0  0  0  0  0  0  0  0
    2.5082    1.5131    0.6449 C   0  0  0  0  0  0  0  0  0  0  0  0
    1.1504    2.1247    0.9990 C   0  0  0  0  0  0  0  0  0  0  0  0
    0.1430    2.0013   -0.1052 C   0  0  0  0  0  0  0  0  0  0  0  0
   -0.0155    2.8683   -1.1691 C   0  0  0  0  0  0  0  0  0  0  0  0
   -1.0314    2.4012   -1.9587 N   0  0  0  0  0  0  0  0  0  0  0  0
   -1.5427    1.2371   -1.4355 C   0  0  0  0  0  0  0  0  0  0  0  0
   -0.8340    0.9658   -0.2666 C   0  0  0  0  0  0  0  0  0  0  0  0
   -1.1760   -0.1870    0.4704 C   0  0  0  0  0  0  0  0  0  0  0  0
   -2.2015   -1.0312    0.0229 C   0  0  0  0  0  0  0  0  0  0  0  0
   -2.4260   -2.1177    0.8260 O   0  0  0  0  0  0  0  0  0  0  0  0
   -3.4875   -2.9869    0.4527 C   0  0  0  0  0  0  0  0  0  0  0  0
   -2.8870   -0.7285   -1.1525 C   0  0  0  0  0  0  0  0  0  0  0  0
   -2.5716    0.4127   -1.9025 C   0  0  0  0  0  0  0  0  0  0  0  0
    3.7612   -2.2998   -0.8837 H   0  0  0  0  0  0  0  0  0  0  0  0
    3.9102   -2.7718    0.8350 H   0  0  0  0  0  0  0  0  0  0  0  0
    2.3170   -2.4025    0.1544 H   0  0  0  0  0  0  0  0  0  0  0  0
    1.6736   -0.2840   -0.0886 H   0  0  0  0  0  0  0  0  0  0  0  0
    2.9045    1.9433   -0.2823 H   0  0  0  0  0  0  0  0  0  0  0  0
    3.2261    1.7319    1.4435 H   0  0  0  0  0  0  0  0  0  0  0  0
    0.7588    1.6557    1.9099 H   0  0  0  0  0  0  0  0  0  0  0  0
    1.2911    3.1878    1.2314 H   0  0  0  0  0  0  0  0  0  0  0  0
    0.5095    3.7777   -1.4308 H   0  0  0  0  0  0  0  0  0  0  0  0
   -1.3609    2.8427   -2.8060 H   0  0  0  0  0  0  0  0  0  0  0  0
   -0.6486   -0.4254    1.3900 H   0  0  0  0  0  0  0  0  0  0  0  0
   -3.5484   -3.7813    1.2027 H   0  0  0  0  0  0  0  0  0  0  0  0
   -4.4474   -2.4599    0.4475 H   0  0  0  0  0  0  0  0  0  0  0  0
   -3.2888   -3.4581   -0.5155 H   0  0  0  0  0  0  0  0  0  0  0  0
   -3.6849   -1.3644   -1.5228 H   0  0  0  0  0  0  0  0  0  0  0  0
   -3.1125    0.6423   -2.8150 H   0  0  0  0  0  0  0  0  0  0  0  0
  1  2  1  0
  2  3  2  0
  2  4  1  0
  4  5  1  0
  5  6  1  0
  6  7  1  0
  7  8  2  0
  8  9  1  0
  9 10  1  0
 10 11  1  0
 11 12  2  0
 12 13  1  0
 13 14  1  0
 14 15  1  0
 13 16  2  0
 16 17  1  0
 11  7  1  0
 17 10  2  0
  1 18  1  0
  1 19  1  0
  1 20  1  0
  4 21  1  0
  5 22  1  0
  5 23  1  0
  6 24  1  0
  6 25  1  0
  8 26  1  0
  9 27  1  0
 12 28  1  0
 15 29  1  0
 15 30  1  0
 15 31  1  0
 16 32  1  0
 17 33  1  0
M  END
>  <coordinate_phase>  (9) 
MMFF94_after_optimization_status_retained

>  <molecule_id>  (9) 
melatonin

>  <seed>  (9) 
20260928

>  <conformer_id>  (9) 
8

>  <optimization_status>  (9) 
0

>  <energy_kcal_mol>  (9) 
1.7485570833679596

>  <sasa_A2>  (9) 
471.70799143793766

>  <sasa_orientation_sd_A2>  (9) 
1.3837392405597722

>  <sasa_orientation_range_A2>  (9) 
6.329184758835424

>  <sasa_first_half_vs_all_abs_delta_A2>  (9) 
0.32257245096025144

>  <mass_weighted_Rg_A>  (9) 
3.2288882422759144

>  <unweighted_Rg_A>  (9) 
3.577770109635534

$$$$
melatonin_20260928_9
     RDKit          3D

 33 34  0  0  0  0  0  0  0  0999 V2000
   -5.6975    0.7351    0.2151 C   0  0  0  0  0  0  0  0  0  0  0  0
   -4.5183   -0.1975    0.2846 C   0  0  0  0  0  0  0  0  0  0  0  0
   -4.5874   -1.2941    0.8291 O   0  0  0  0  0  0  0  0  0  0  0  0
   -3.3731    0.2981   -0.2934 N   0  0  0  0  0  0  0  0  0  0  0  0
   -2.1265   -0.4474   -0.2792 C   0  0  0  0  0  0  0  0  0  0  0  0
   -1.4019   -0.3487    1.0657 C   0  0  0  0  0  0  0  0  0  0  0  0
   -0.0690   -1.0273    1.0397 C   0  0  0  0  0  0  0  0  0  0  0  0
    0.1989   -2.3184    1.4507 C   0  0  0  0  0  0  0  0  0  0  0  0
    1.5320   -2.5629    1.2631 N   0  0  0  0  0  0  0  0  0  0  0  0
    2.1480   -1.4542    0.7320 C   0  0  0  0  0  0  0  0  0  0  0  0
    1.1697   -0.4726    0.5830 C   0  0  0  0  0  0  0  0  0  0  0  0
    1.5511    0.7767    0.0517 C   0  0  0  0  0  0  0  0  0  0  0  0
    2.8842    1.0100   -0.3135 C   0  0  0  0  0  0  0  0  0  0  0  0
    3.1187    2.2624   -0.8168 O   0  0  0  0  0  0  0  0  0  0  0  0
    4.4565    2.5652   -1.1912 C   0  0  0  0  0  0  0  0  0  0  0  0
    3.8353    0.0037   -0.1504 C   0  0  0  0  0  0  0  0  0  0  0  0
    3.4849   -1.2471    0.3760 C   0  0  0  0  0  0  0  0  0  0  0  0
   -5.5305    1.5452   -0.5001 H   0  0  0  0  0  0  0  0  0  0  0  0
   -6.5792    0.1732   -0.1053 H   0  0  0  0  0  0  0  0  0  0  0  0
   -5.8726    1.1644    1.2050 H   0  0  0  0  0  0  0  0  0  0  0  0
   -3.3556    1.2525   -0.6276 H   0  0  0  0  0  0  0  0  0  0  0  0
   -2.3419   -1.4953   -0.5198 H   0  0  0  0  0  0  0  0  0  0  0  0
   -1.5069   -0.0416   -1.0866 H   0  0  0  0  0  0  0  0  0  0  0  0
   -2.0218   -0.7864    1.8582 H   0  0  0  0  0  0  0  0  0  0  0  0
   -1.2691    0.7063    1.3373 H   0  0  0  0  0  0  0  0  0  0  0  0
   -0.4501   -3.0819    1.8603 H   0  0  0  0  0  0  0  0  0  0  0  0
    2.0004   -3.4313    1.4806 H   0  0  0  0  0  0  0  0  0  0  0  0
    0.8147    1.5643   -0.0754 H   0  0  0  0  0  0  0  0  0  0  0  0
    4.7965    1.9132   -2.0026 H   0  0  0  0  0  0  0  0  0  0  0  0
    4.4747    3.5945   -1.5623 H   0  0  0  0  0  0  0  0  0  0  0  0
    5.1301    2.5104   -0.3297 H   0  0  0  0  0  0  0  0  0  0  0  0
    4.8743    0.1560   -0.4247 H   0  0  0  0  0  0  0  0  0  0  0  0
    4.2315   -2.0248    0.5004 H   0  0  0  0  0  0  0  0  0  0  0  0
  1  2  1  0
  2  3  2  0
  2  4  1  0
  4  5  1  0
  5  6  1  0
  6  7  1  0
  7  8  2  0
  8  9  1  0
  9 10  1  0
 10 11  1  0
 11 12  2  0
 12 13  1  0
 13 14  1  0
 14 15  1  0
 13 16  2  0
 16 17  1  0
 11  7  1  0
 17 10  2  0
  1 18  1  0
  1 19  1  0
  1 20  1  0
  4 21  1  0
  5 22  1  0
  5 23  1  0
  6 24  1  0
  6 25  1  0
  8 26  1  0
  9 27  1  0
 12 28  1  0
 15 29  1  0
 15 30  1  0
 15 31  1  0
 16 32  1  0
 17 33  1  0
M  END
>  <coordinate_phase>  (10) 
MMFF94_after_optimization_status_retained

>  <molecule_id>  (10) 
melatonin

>  <seed>  (10) 
20260928

>  <conformer_id>  (10) 
9

>  <optimization_status>  (10) 
0

>  <energy_kcal_mol>  (10) 
3.1743027456444217

>  <sasa_A2>  (10) 
480.7377914818299

>  <sasa_orientation_sd_A2>  (10) 
2.4543901041308285

>  <sasa_orientation_range_A2>  (10) 
12.532495319067777

>  <sasa_first_half_vs_all_abs_delta_A2>  (10) 
0.10278649299175413

>  <mass_weighted_Rg_A>  (10) 
3.6133584656281488

>  <unweighted_Rg_A>  (10) 
4.041865464526979

$$$$
melatonin_20260928_10
     RDKit          3D

 33 34  0  0  0  0  0  0  0  0999 V2000
    4.6120    1.9142    0.1267 C   0  0  0  0  0  0  0  0  0  0  0  0
    3.2146    1.3984   -0.0877 C   0  0  0  0  0  0  0  0  0  0  0  0
    2.2259    2.0159    0.2951 O   0  0  0  0  0  0  0  0  0  0  0  0
    3.1537    0.1804   -0.7253 N   0  0  0  0  0  0  0  0  0  0  0  0
    1.8837   -0.4780   -0.9738 C   0  0  0  0  0  0  0  0  0  0  0  0
    1.3470   -1.1953    0.2680 C   0  0  0  0  0  0  0  0  0  0  0  0
   -0.0141   -1.7725    0.0441 C   0  0  0  0  0  0  0  0  0  0  0  0
   -0.3263   -3.0944   -0.2042 C   0  0  0  0  0  0  0  0  0  0  0  0
   -1.6851   -3.1946   -0.3454 N   0  0  0  0  0  0  0  0  0  0  0  0
   -2.2723   -1.9599   -0.1981 C   0  0  0  0  0  0  0  0  0  0  0  0
   -1.2494   -1.0470    0.0504 C   0  0  0  0  0  0  0  0  0  0  0  0
   -1.5824    0.3129    0.2440 C   0  0  0  0  0  0  0  0  0  0  0  0
   -2.9217    0.7131    0.1802 C   0  0  0  0  0  0  0  0  0  0  0  0
   -3.3793    1.9942    0.3448 O   0  0  0  0  0  0  0  0  0  0  0  0
   -2.3972    2.9964    0.5823 C   0  0  0  0  0  0  0  0  0  0  0  0
   -3.9182   -0.2322   -0.0696 C   0  0  0  0  0  0  0  0  0  0  0  0
   -3.6175   -1.5852   -0.2634 C   0  0  0  0  0  0  0  0  0  0  0  0
    4.8696    1.8194    1.1848 H   0  0  0  0  0  0  0  0  0  0  0  0
    5.3431    1.3603   -0.4686 H   0  0  0  0  0  0  0  0  0  0  0  0
    4.6545    2.9654   -0.1715 H   0  0  0  0  0  0  0  0  0  0  0  0
    4.0068   -0.3260   -0.9223 H   0  0  0  0  0  0  0  0  0  0  0  0
    2.0429   -1.1913   -1.7902 H   0  0  0  0  0  0  0  0  0  0  0  0
    1.1707    0.2757   -1.3279 H   0  0  0  0  0  0  0  0  0  0  0  0
    2.0461   -1.9895    0.5598 H   0  0  0  0  0  0  0  0  0  0  0  0
    1.3067   -0.5045    1.1196 H   0  0  0  0  0  0  0  0  0  0  0  0
    0.3003   -3.9723   -0.2882 H   0  0  0  0  0  0  0  0  0  0  0  0
   -2.1913   -4.0494   -0.5301 H   0  0  0  0  0  0  0  0  0  0  0  0
   -0.7805    1.0170    0.4371 H   0  0  0  0  0  0  0  0  0  0  0  0
   -1.7045    3.0794   -0.2618 H   0  0  0  0  0  0  0  0  0  0  0  0
   -1.8618    2.8104    1.5193 H   0  0  0  0  0  0  0  0  0  0  0  0
   -2.9163    3.9547    0.6812 H   0  0  0  0  0  0  0  0  0  0  0  0
   -4.9560    0.0912   -0.1152 H   0  0  0  0  0  0  0  0  0  0  0  0
   -4.4039   -2.3068   -0.4563 H   0  0  0  0  0  0  0  0  0  0  0  0
  1  2  1  0
  2  3  2  0
  2  4  1  0
  4  5  1  0
  5  6  1  0
  6  7  1  0
  7  8  2  0
  8  9  1  0
  9 10  1  0
 10 11  1  0
 11 12  2  0
 12 13  1  0
 13 14  1  0
 14 15  1  0
 13 16  2  0
 16 17  1  0
 11  7  1  0
 17 10  2  0
  1 18  1  0
  1 19  1  0
  1 20  1  0
  4 21  1  0
  5 22  1  0
  5 23  1  0
  6 24  1  0
  6 25  1  0
  8 26  1  0
  9 27  1  0
 12 28  1  0
 15 29  1  0
 15 30  1  0
 15 31  1  0
 16 32  1  0
 17 33  1  0
M  END
>  <coordinate_phase>  (11) 
MMFF94_after_optimization_status_retained

>  <molecule_id>  (11) 
melatonin

>  <seed>  (11) 
20260928

>  <conformer_id>  (11) 
10

>  <optimization_status>  (11) 
0

>  <energy_kcal_mol>  (11) 
2.0868556526308852

>  <sasa_A2>  (11) 
467.00025351587027

>  <sasa_orientation_sd_A2>  (11) 
1.882403911504353

>  <sasa_orientation_range_A2>  (11) 
8.406897424266731

>  <sasa_first_half_vs_all_abs_delta_A2>  (11) 
0.3820474021500786

>  <mass_weighted_Rg_A>  (11) 
3.2825019882035633

>  <unweighted_Rg_A>  (11) 
3.6750425664841617

$$$$
melatonin_20260928_11
     RDKit          3D

 33 34  0  0  0  0  0  0  0  0999 V2000
   -5.5699    1.3164   -0.5661 C   0  0  0  0  0  0  0  0  0  0  0  0
   -4.4995    0.4549    0.0481 C   0  0  0  0  0  0  0  0  0  0  0  0
   -4.7331   -0.6740    0.4662 O   0  0  0  0  0  0  0  0  0  0  0  0
   -3.2543    1.0378    0.0764 N   0  0  0  0  0  0  0  0  0  0  0  0
   -2.0932    0.3339    0.5926 C   0  0  0  0  0  0  0  0  0  0  0  0
   -1.5206   -0.6663   -0.4150 C   0  0  0  0  0  0  0  0  0  0  0  0
   -0.2633   -1.3085    0.0796 C   0  0  0  0  0  0  0  0  0  0  0  0
   -0.1669   -2.5247    0.7271 C   0  0  0  0  0  0  0  0  0  0  0  0
    1.1498   -2.7546    1.0192 N   0  0  0  0  0  0  0  0  0  0  0  0
    1.9242   -1.7077    0.5772 C   0  0  0  0  0  0  0  0  0  0  0  0
    1.0660   -0.7856   -0.0196 C   0  0  0  0  0  0  0  0  0  0  0  0
    1.6215    0.3922   -0.5606 C   0  0  0  0  0  0  0  0  0  0  0  0
    3.0036    0.6160   -0.4915 C   0  0  0  0  0  0  0  0  0  0  0  0
    3.4109    1.7976   -1.0526 O   0  0  0  0  0  0  0  0  0  0  0  0
    4.8052    2.0749   -1.0274 C   0  0  0  0  0  0  0  0  0  0  0  0
    3.8308   -0.3291    0.1137 C   0  0  0  0  0  0  0  0  0  0  0  0
    3.3064   -1.5090    0.6590 C   0  0  0  0  0  0  0  0  0  0  0  0
   -6.4583    1.2911    0.0710 H   0  0  0  0  0  0  0  0  0  0  0  0
   -5.2468    2.3568   -0.6601 H   0  0  0  0  0  0  0  0  0  0  0  0
   -5.8154    0.9286   -1.5581 H   0  0  0  0  0  0  0  0  0  0  0  0
   -3.1089    1.9268   -0.3835 H   0  0  0  0  0  0  0  0  0  0  0  0
   -2.3775   -0.1791    1.5190 H   0  0  0  0  0  0  0  0  0  0  0  0
   -1.3501    1.0970    0.8498 H   0  0  0  0  0  0  0  0  0  0  0  0
   -2.2653   -1.4405   -0.6388 H   0  0  0  0  0  0  0  0  0  0  0  0
   -1.3208   -0.1584   -1.3672 H   0  0  0  0  0  0  0  0  0  0  0  0
   -0.9274   -3.2438    1.0036 H   0  0  0  0  0  0  0  0  0  0  0  0
    1.5065   -3.5730    1.4924 H   0  0  0  0  0  0  0  0  0  0  0  0
    0.9820    1.1304   -1.0348 H   0  0  0  0  0  0  0  0  0  0  0  0
    5.1725    2.1585    0.0007 H   0  0  0  0  0  0  0  0  0  0  0  0
    5.3680    1.3225   -1.5897 H   0  0  0  0  0  0  0  0  0  0  0  0
    4.9625    3.0413   -1.5160 H   0  0  0  0  0  0  0  0  0  0  0  0
    4.9040   -0.1823    0.1819 H   0  0  0  0  0  0  0  0  0  0  0  0
    3.9573   -2.2399    1.1277 H   0  0  0  0  0  0  0  0  0  0  0  0
  1  2  1  0
  2  3  2  0
  2  4  1  0
  4  5  1  0
  5  6  1  0
  6  7  1  0
  7  8  2  0
  8  9  1  0
  9 10  1  0
 10 11  1  0
 11 12  2  0
 12 13  1  0
 13 14  1  0
 14 15  1  0
 13 16  2  0
 16 17  1  0
 11  7  1  0
 17 10  2  0
  1 18  1  0
  1 19  1  0
  1 20  1  0
  4 21  1  0
  5 22  1  0
  5 23  1  0
  6 24  1  0
  6 25  1  0
  8 26  1  0
  9 27  1  0
 12 28  1  0
 15 29  1  0
 15 30  1  0
 15 31  1  0
 16 32  1  0
 17 33  1  0
M  END
>  <coordinate_phase>  (12) 
MMFF94_after_optimization_status_retained

>  <molecule_id>  (12) 
melatonin

>  <seed>  (12) 
20260928

>  <conformer_id>  (12) 
11

>  <optimization_status>  (12) 
0

>  <energy_kcal_mol>  (12) 
3.1743027461214437

>  <sasa_A2>  (12) 
481.4141983419608

>  <sasa_orientation_sd_A2>  (12) 
2.0472962694676196

>  <sasa_orientation_range_A2>  (12) 
9.583172324320003

>  <sasa_first_half_vs_all_abs_delta_A2>  (12) 
0.7649761036295786

>  <mass_weighted_Rg_A>  (12) 
3.6133580915292796

>  <unweighted_Rg_A>  (12) 
4.041865355940813

$$$$
melatonin_20260928_12
     RDKit          3D

 33 34  0  0  0  0  0  0  0  0999 V2000
    4.8052    0.0222   -0.4938 C   0  0  0  0  0  0  0  0  0  0  0  0
    3.7823    1.1003   -0.2581 C   0  0  0  0  0  0  0  0  0  0  0  0
    4.0536    2.1393    0.3346 O   0  0  0  0  0  0  0  0  0  0  0  0
    2.5321    0.8037   -0.7486 N   0  0  0  0  0  0  0  0  0  0  0  0
    1.3950    1.6685   -0.4866 C   0  0  0  0  0  0  0  0  0  0  0  0
    0.7984    1.4663    0.9109 C   0  0  0  0  0  0  0  0  0  0  0  0
    0.2469    0.0861    1.1172 C   0  0  0  0  0  0  0  0  0  0  0  0
    0.8400   -0.9283    1.8443 C   0  0  0  0  0  0  0  0  0  0  0  0
    0.0268   -2.0271    1.7949 N   0  0  0  0  0  0  0  0  0  0  0  0
   -1.0898   -1.7577    1.0393 C   0  0  0  0  0  0  0  0  0  0  0  0
   -0.9865   -0.4360    0.6070 C   0  0  0  0  0  0  0  0  0  0  0  0
   -2.0260    0.0993   -0.1880 C   0  0  0  0  0  0  0  0  0  0  0  0
   -3.1235   -0.7018   -0.5257 C   0  0  0  0  0  0  0  0  0  0  0  0
   -4.1931   -0.3118   -1.2875 O   0  0  0  0  0  0  0  0  0  0  0  0
   -4.2004    1.0345   -1.7448 C   0  0  0  0  0  0  0  0  0  0  0  0
   -3.1859   -2.0215   -0.0763 C   0  0  0  0  0  0  0  0  0  0  0  0
   -2.1753   -2.5765    0.7152 C   0  0  0  0  0  0  0  0  0  0  0  0
    5.7384    0.4816   -0.8314 H   0  0  0  0  0  0  0  0  0  0  0  0
    4.4754   -0.6838   -1.2610 H   0  0  0  0  0  0  0  0  0  0  0  0
    4.9764   -0.5189    0.4404 H   0  0  0  0  0  0  0  0  0  0  0  0
    2.3256   -0.1578   -0.9894 H   0  0  0  0  0  0  0  0  0  0  0  0
    0.6529    1.4607   -1.2647 H   0  0  0  0  0  0  0  0  0  0  0  0
    1.7162    2.7103   -0.5976 H   0  0  0  0  0  0  0  0  0  0  0  0
    1.5580    1.6730    1.6752 H   0  0  0  0  0  0  0  0  0  0  0  0
   -0.0055    2.1964    1.0651 H   0  0  0  0  0  0  0  0  0  0  0  0
    1.7696   -0.9543    2.3982 H   0  0  0  0  0  0  0  0  0  0  0  0
    0.2112   -2.9108    2.2495 H   0  0  0  0  0  0  0  0  0  0  0  0
   -1.9465    1.1274   -0.5178 H   0  0  0  0  0  0  0  0  0  0  0  0
   -4.2122    1.7373   -0.9052 H   0  0  0  0  0  0  0  0  0  0  0  0
   -5.1192    1.1873   -2.3192 H   0  0  0  0  0  0  0  0  0  0  0  0
   -3.3546    1.2287   -2.4126 H   0  0  0  0  0  0  0  0  0  0  0  0
   -4.0442   -2.6341   -0.3447 H   0  0  0  0  0  0  0  0  0  0  0  0
   -2.2414   -3.6025    1.0613 H   0  0  0  0  0  0  0  0  0  0  0  0
  1  2  1  0
  2  3  2  0
  2  4  1  0
  4  5  1  0
  5  6  1  0
  6  7  1  0
  7  8  2  0
  8  9  1  0
  9 10  1  0
 10 11  1  0
 11 12  2  0
 12 13  1  0
 13 14  1  0
 14 15  1  0
 13 16  2  0
 16 17  1  0
 11  7  1  0
 17 10  2  0
  1 18  1  0
  1 19  1  0
  1 20  1  0
  4 21  1  0
  5 22  1  0
  5 23  1  0
  6 24  1  0
  6 25  1  0
  8 26  1  0
  9 27  1  0
 12 28  1  0
 15 29  1  0
 15 30  1  0
 15 31  1  0
 16 32  1  0
 17 33  1  0
M  END
>  <coordinate_phase>  (13) 
MMFF94_after_optimization_status_retained

>  <molecule_id>  (13) 
melatonin

>  <seed>  (13) 
20260928

>  <conformer_id>  (13) 
12

>  <optimization_status>  (13) 
0

>  <energy_kcal_mol>  (13) 
1.5128000611019852

>  <sasa_A2>  (13) 
467.77559358920234

>  <sasa_orientation_sd_A2>  (13) 
1.4904819777935674

>  <sasa_orientation_range_A2>  (13) 
5.627348894900479

>  <sasa_first_half_vs_all_abs_delta_A2>  (13) 
0.17914091975944757

>  <mass_weighted_Rg_A>  (13) 
3.340826022353278

>  <unweighted_Rg_A>  (13) 
3.649060346920572

$$$$
melatonin_20260928_13
     RDKit          3D

 33 34  0  0  0  0  0  0  0  0999 V2000
    5.0512    2.0570    0.3886 C   0  0  0  0  0  0  0  0  0  0  0  0
    4.1615    0.8881    0.0611 C   0  0  0  0  0  0  0  0  0  0  0  0
    4.5030    0.0104   -0.7241 O   0  0  0  0  0  0  0  0  0  0  0  0
    2.9435    0.9096    0.6998 N   0  0  0  0  0  0  0  0  0  0  0  0
    1.9473   -0.1238    0.4774 C   0  0  0  0  0  0  0  0  0  0  0  0
    1.1861    0.0691   -0.8370 C   0  0  0  0  0  0  0  0  0  0  0  0
    0.0966   -0.9415   -1.0103 C   0  0  0  0  0  0  0  0  0  0  0  0
    0.2076   -2.1530   -1.6643 C   0  0  0  0  0  0  0  0  0  0  0  0
   -1.0013   -2.7898   -1.6007 N   0  0  0  0  0  0  0  0  0  0  0  0
   -1.9085   -2.0190   -0.9127 C   0  0  0  0  0  0  0  0  0  0  0  0
   -1.2512   -0.8496   -0.5321 C   0  0  0  0  0  0  0  0  0  0  0  0
   -1.9716    0.1256    0.1954 C   0  0  0  0  0  0  0  0  0  0  0  0
   -3.3158   -0.1008    0.5156 C   0  0  0  0  0  0  0  0  0  0  0  0
   -4.1267    0.7560    1.2121 O   0  0  0  0  0  0  0  0  0  0  0  0
   -3.5596    1.9971    1.6104 C   0  0  0  0  0  0  0  0  0  0  0  0
   -3.9356   -1.2863    0.1179 C   0  0  0  0  0  0  0  0  0  0  0  0
   -3.2488   -2.2680   -0.6034 C   0  0  0  0  0  0  0  0  0  0  0  0
    6.0577    1.6896    0.6073 H   0  0  0  0  0  0  0  0  0  0  0  0
    4.6911    2.6072    1.2623 H   0  0  0  0  0  0  0  0  0  0  0  0
    5.0830    2.7334   -0.4695 H   0  0  0  0  0  0  0  0  0  0  0  0
    2.6913    1.7069    1.2682 H   0  0  0  0  0  0  0  0  0  0  0  0
    1.2619   -0.0915    1.3317 H   0  0  0  0  0  0  0  0  0  0  0  0
    2.4472   -1.0997    0.4888 H   0  0  0  0  0  0  0  0  0  0  0  0
    0.7587    1.0793   -0.8716 H   0  0  0  0  0  0  0  0  0  0  0  0
    1.8800    0.0086   -1.6848 H   0  0  0  0  0  0  0  0  0  0  0  0
    1.0479   -2.6133   -2.1683 H   0  0  0  0  0  0  0  0  0  0  0  0
   -1.2040   -3.6963   -1.9988 H   0  0  0  0  0  0  0  0  0  0  0  0
   -1.4593    1.0331    0.4880 H   0  0  0  0  0  0  0  0  0  0  0  0
   -2.7288    1.8455    2.3075 H   0  0  0  0  0  0  0  0  0  0  0  0
   -4.3338    2.5655    2.1348 H   0  0  0  0  0  0  0  0  0  0  0  0
   -3.2457    2.5856    0.7419 H   0  0  0  0  0  0  0  0  0  0  0  0
   -4.9803   -1.4515    0.3732 H   0  0  0  0  0  0  0  0  0  0  0  0
   -3.7449   -3.1836   -0.9073 H   0  0  0  0  0  0  0  0  0  0  0  0
  1  2  1  0
  2  3  2  0
  2  4  1  0
  4  5  1  0
  5  6  1  0
  6  7  1  0
  7  8  2  0
  8  9  1  0
  9 10  1  0
 10 11  1  0
 11 12  2  0
 12 13  1  0
 13 14  1  0
 14 15  1  0
 13 16  2  0
 16 17  1  0
 11  7  1  0
 17 10  2  0
  1 18  1  0
  1 19  1  0
  1 20  1  0
  4 21  1  0
  5 22  1  0
  5 23  1  0
  6 24  1  0
  6 25  1  0
  8 26  1  0
  9 27  1  0
 12 28  1  0
 15 29  1  0
 15 30  1  0
 15 31  1  0
 16 32  1  0
 17 33  1  0
M  END
>  <coordinate_phase>  (14) 
MMFF94_after_optimization_status_retained

>  <molecule_id>  (14) 
melatonin

>  <seed>  (14) 
20260928

>  <conformer_id>  (14) 
13

>  <optimization_status>  (14) 
0

>  <energy_kcal_mol>  (14) 
3.351635848710348

>  <sasa_A2>  (14) 
480.3752426718065

>  <sasa_orientation_sd_A2>  (14) 
1.8556893550349196

>  <sasa_orientation_range_A2>  (14) 
8.816157317777595

>  <sasa_first_half_vs_all_abs_delta_A2>  (14) 
0.2998406642074656

>  <mass_weighted_Rg_A>  (14) 
3.5374480265244643

>  <unweighted_Rg_A>  (14) 
3.8529426989305997

$$$$
melatonin_20260928_14
     RDKit          3D

 33 34  0  0  0  0  0  0  0  0999 V2000
   -4.7408    0.5569    1.3801 C   0  0  0  0  0  0  0  0  0  0  0  0
   -4.0445   -0.6121    0.7376 C   0  0  0  0  0  0  0  0  0  0  0  0
   -4.6325   -1.3967    0.0007 O   0  0  0  0  0  0  0  0  0  0  0  0
   -2.7059   -0.7014    1.0392 N   0  0  0  0  0  0  0  0  0  0  0  0
   -1.8505   -1.6842    0.3967 C   0  0  0  0  0  0  0  0  0  0  0  0
   -1.4216   -1.2725   -1.0162 C   0  0  0  0  0  0  0  0  0  0  0  0
   -0.6095   -0.0108   -1.0390 C   0  0  0  0  0  0  0  0  0  0  0  0
   -1.0472    1.2349   -1.4467 C   0  0  0  0  0  0  0  0  0  0  0  0
   -0.0104    2.1188   -1.3223 N   0  0  0  0  0  0  0  0  0  0  0  0
    1.1026    1.4786   -0.8306 C   0  0  0  0  0  0  0  0  0  0  0  0
    0.7605    0.1394   -0.6497 C   0  0  0  0  0  0  0  0  0  0  0  0
    1.7456   -0.7412   -0.1572 C   0  0  0  0  0  0  0  0  0  0  0  0
    3.0300   -0.2662    0.1420 C   0  0  0  0  0  0  0  0  0  0  0  0
    3.8879   -1.2239    0.6145 O   0  0  0  0  0  0  0  0  0  0  0  0
    5.2155   -0.8103    0.9108 C   0  0  0  0  0  0  0  0  0  0  0  0
    3.3346    1.0806   -0.0493 C   0  0  0  0  0  0  0  0  0  0  0  0
    2.3768    1.9779   -0.5407 C   0  0  0  0  0  0  0  0  0  0  0  0
   -4.1534    0.9709    2.2045 H   0  0  0  0  0  0  0  0  0  0  0  0
   -4.9009    1.3348    0.6291 H   0  0  0  0  0  0  0  0  0  0  0  0
   -5.7030    0.2252    1.7799 H   0  0  0  0  0  0  0  0  0  0  0  0
   -2.2461    0.1094    1.4345 H   0  0  0  0  0  0  0  0  0  0  0  0
   -2.3889   -2.6374    0.3501 H   0  0  0  0  0  0  0  0  0  0  0  0
   -0.9806   -1.8207    1.0478 H   0  0  0  0  0  0  0  0  0  0  0  0
   -2.3064   -1.1469   -1.6528 H   0  0  0  0  0  0  0  0  0  0  0  0
   -0.8307   -2.0829   -1.4604 H   0  0  0  0  0  0  0  0  0  0  0  0
   -2.0086    1.5608   -1.8222 H   0  0  0  0  0  0  0  0  0  0  0  0
   -0.0491    3.1000   -1.5611 H   0  0  0  0  0  0  0  0  0  0  0  0
    1.5158   -1.7924   -0.0099 H   0  0  0  0  0  0  0  0  0  0  0  0
    5.2270   -0.0669    1.7147 H   0  0  0  0  0  0  0  0  0  0  0  0
    5.7684   -1.6872    1.2612 H   0  0  0  0  0  0  0  0  0  0  0  0
    5.7215   -0.4340    0.0155 H   0  0  0  0  0  0  0  0  0  0  0  0
    4.3207    1.4756    0.1737 H   0  0  0  0  0  0  0  0  0  0  0  0
    2.6237    3.0240   -0.6907 H   0  0  0  0  0  0  0  0  0  0  0  0
  1  2  1  0
  2  3  2  0
  2  4  1  0
  4  5  1  0
  5  6  1  0
  6  7  1  0
  7  8  2  0
  8  9  1  0
  9 10  1  0
 10 11  1  0
 11 12  2  0
 12 13  1  0
 13 14  1  0
 14 15  1  0
 13 16  2  0
 16 17  1  0
 11  7  1  0
 17 10  2  0
  1 18  1  0
  1 19  1  0
  1 20  1  0
  4 21  1  0
  5 22  1  0
  5 23  1  0
  6 24  1  0
  6 25  1  0
  8 26  1  0
  9 27  1  0
 12 28  1  0
 15 29  1  0
 15 30  1  0
 15 31  1  0
 16 32  1  0
 17 33  1  0
M  END
>  <coordinate_phase>  (15) 
MMFF94_after_optimization_status_retained

>  <molecule_id>  (15) 
melatonin

>  <seed>  (15) 
20260928

>  <conformer_id>  (15) 
14

>  <optimization_status>  (15) 
0

>  <energy_kcal_mol>  (15) 
1.629383359495666

>  <sasa_A2>  (15) 
468.6777264431117

>  <sasa_orientation_sd_A2>  (15) 
0.9833988524606855

>  <sasa_orientation_range_A2>  (15) 
3.5838730210909375

>  <sasa_first_half_vs_all_abs_delta_A2>  (15) 
0.15168396068327183

>  <mass_weighted_Rg_A>  (15) 
3.4028028465026177

>  <unweighted_Rg_A>  (15) 
3.797706959824584

$$$$
melatonin_20260928_15
     RDKit          3D

 33 34  0  0  0  0  0  0  0  0999 V2000
   -3.2741    1.9362    1.2715 C   0  0  0  0  0  0  0  0  0  0  0  0
   -3.5777    0.9823    0.1473 C   0  0  0  0  0  0  0  0  0  0  0  0
   -4.7155    0.8192   -0.2806 O   0  0  0  0  0  0  0  0  0  0  0  0
   -2.4736    0.3177   -0.3347 N   0  0  0  0  0  0  0  0  0  0  0  0
   -2.6143   -0.7485   -1.3120 C   0  0  0  0  0  0  0  0  0  0  0  0
   -1.3068   -1.0612   -2.0440 C   0  0  0  0  0  0  0  0  0  0  0  0
   -0.2442   -1.6135   -1.1412 C   0  0  0  0  0  0  0  0  0  0  0  0
   -0.0798   -2.9384   -0.7856 C   0  0  0  0  0  0  0  0  0  0  0  0
    0.9938   -3.0285    0.0586 N   0  0  0  0  0  0  0  0  0  0  0  0
    1.5378   -1.7836    0.2697 C   0  0  0  0  0  0  0  0  0  0  0  0
    0.7899   -0.8762   -0.4781 C   0  0  0  0  0  0  0  0  0  0  0  0
    1.1545    0.4857   -0.4362 C   0  0  0  0  0  0  0  0  0  0  0  0
    2.2407    0.9008    0.3463 C   0  0  0  0  0  0  0  0  0  0  0  0
    2.4816    2.2484    0.3040 O   0  0  0  0  0  0  0  0  0  0  0  0
    3.6015    2.7264    1.0382 C   0  0  0  0  0  0  0  0  0  0  0  0
    2.9642   -0.0357    1.0829 C   0  0  0  0  0  0  0  0  0  0  0  0
    2.6274   -1.3959    1.0566 C   0  0  0  0  0  0  0  0  0  0  0  0
   -2.2048    2.1578    1.3326 H   0  0  0  0  0  0  0  0  0  0  0  0
   -3.8074    2.8750    1.0981 H   0  0  0  0  0  0  0  0  0  0  0  0
   -3.6024    1.4934    2.2153 H   0  0  0  0  0  0  0  0  0  0  0  0
   -1.6576    0.2808    0.2656 H   0  0  0  0  0  0  0  0  0  0  0  0
   -2.9881   -1.6304   -0.7787 H   0  0  0  0  0  0  0  0  0  0  0  0
   -3.3787   -0.4548   -2.0404 H   0  0  0  0  0  0  0  0  0  0  0  0
   -0.9351   -0.1570   -2.5414 H   0  0  0  0  0  0  0  0  0  0  0  0
   -1.5112   -1.7915   -2.8369 H   0  0  0  0  0  0  0  0  0  0  0  0
   -0.6370   -3.8241   -1.0619 H   0  0  0  0  0  0  0  0  0  0  0  0
    1.3400   -3.8835    0.4718 H   0  0  0  0  0  0  0  0  0  0  0  0
    0.5974    1.2196   -1.0121 H   0  0  0  0  0  0  0  0  0  0  0  0
    3.6671    3.8074    0.8816 H   0  0  0  0  0  0  0  0  0  0  0  0
    4.5330    2.2803    0.6741 H   0  0  0  0  0  0  0  0  0  0  0  0
    3.4719    2.5531    2.1115 H   0  0  0  0  0  0  0  0  0  0  0  0
    3.8093    0.2574    1.6977 H   0  0  0  0  0  0  0  0  0  0  0  0
    3.1980   -2.1188    1.6309 H   0  0  0  0  0  0  0  0  0  0  0  0
  1  2  1  0
  2  3  2  0
  2  4  1  0
  4  5  1  0
  5  6  1  0
  6  7  1  0
  7  8  2  0
  8  9  1  0
  9 10  1  0
 10 11  1  0
 11 12  2  0
 12 13  1  0
 13 14  1  0
 14 15  1  0
 13 16  2  0
 16 17  1  0
 11  7  1  0
 17 10  2  0
  1 18  1  0
  1 19  1  0
  1 20  1  0
  4 21  1  0
  5 22  1  0
  5 23  1  0
  6 24  1  0
  6 25  1  0
  8 26  1  0
  9 27  1  0
 12 28  1  0
 15 29  1  0
 15 30  1  0
 15 31  1  0
 16 32  1  0
 17 33  1  0
M  END
>  <coordinate_phase>  (16) 
MMFF94_after_optimization_status_retained

>  <molecule_id>  (16) 
melatonin

>  <seed>  (16) 
20260928

>  <conformer_id>  (16) 
15

>  <optimization_status>  (16) 
0

>  <energy_kcal_mol>  (16) 
1.7485570833380892

>  <sasa_A2>  (16) 
471.5456327140134

>  <sasa_orientation_sd_A2>  (16) 
1.445446531394879

>  <sasa_orientation_range_A2>  (16) 
6.075765860795286

>  <sasa_first_half_vs_all_abs_delta_A2>  (16) 
0.1524274920964217

>  <mass_weighted_Rg_A>  (16) 
3.2288888371309934

>  <unweighted_Rg_A>  (16) 
3.577770749020918

$$$$
melatonin_20260928_16
     RDKit          3D

 33 34  0  0  0  0  0  0  0  0999 V2000
   -5.5693    1.3720    0.5374 C   0  0  0  0  0  0  0  0  0  0  0  0
   -4.5270    0.5218   -0.1388 C   0  0  0  0  0  0  0  0  0  0  0  0
   -4.7141    0.0197   -1.2416 O   0  0  0  0  0  0  0  0  0  0  0  0
   -3.3651    0.3787    0.5876 N   0  0  0  0  0  0  0  0  0  0  0  0
   -2.2069   -0.2872    0.0129 C   0  0  0  0  0  0  0  0  0  0  0  0
   -1.2651   -0.8180    1.0935 C   0  0  0  0  0  0  0  0  0  0  0  0
   -0.0358   -1.4467    0.5210 C   0  0  0  0  0  0  0  0  0  0  0  0
    0.1457   -2.7877    0.2440 C   0  0  0  0  0  0  0  0  0  0  0  0
    1.4011   -2.9543   -0.2751 N   0  0  0  0  0  0  0  0  0  0  0  0
    2.0517   -1.7450   -0.3428 C   0  0  0  0  0  0  0  0  0  0  0  0
    1.1759   -0.7794    0.1504 C   0  0  0  0  0  0  0  0  0  0  0  0
    1.6103    0.5617    0.1855 C   0  0  0  0  0  0  0  0  0  0  0  0
    2.8932    0.8993   -0.2676 C   0  0  0  0  0  0  0  0  0  0  0  0
    3.1881    2.2342   -0.1783 O   0  0  0  0  0  0  0  0  0  0  0  0
    4.4696    2.6424   -0.6394 C   0  0  0  0  0  0  0  0  0  0  0  0
    3.7419   -0.0942   -0.7536 C   0  0  0  0  0  0  0  0  0  0  0  0
    3.3367   -1.4351   -0.8005 C   0  0  0  0  0  0  0  0  0  0  0  0
   -5.3591    1.4934    1.6037 H   0  0  0  0  0  0  0  0  0  0  0  0
   -5.5919    2.3561    0.0624 H   0  0  0  0  0  0  0  0  0  0  0  0
   -6.5456    0.8900    0.4354 H   0  0  0  0  0  0  0  0  0  0  0  0
   -3.1975    1.0468    1.3287 H   0  0  0  0  0  0  0  0  0  0  0  0
   -1.6990    0.4473   -0.6234 H   0  0  0  0  0  0  0  0  0  0  0  0
   -2.5436   -1.1033   -0.6373 H   0  0  0  0  0  0  0  0  0  0  0  0
   -1.7978   -1.5490    1.7155 H   0  0  0  0  0  0  0  0  0  0  0  0
   -0.9779   -0.0027    1.7697 H   0  0  0  0  0  0  0  0  0  0  0  0
   -0.5146   -3.6360    0.3689 H   0  0  0  0  0  0  0  0  0  0  0  0
    1.7971   -3.8360   -0.5702 H   0  0  0  0  0  0  0  0  0  0  0  0
    0.9537    1.3400    0.5624 H   0  0  0  0  0  0  0  0  0  0  0  0
    4.5926    2.4280   -1.7062 H   0  0  0  0  0  0  0  0  0  0  0  0
    4.5423    3.7263   -0.5078 H   0  0  0  0  0  0  0  0  0  0  0  0
    5.2673    2.1813   -0.0477 H   0  0  0  0  0  0  0  0  0  0  0  0
    4.7402    0.1380   -1.1105 H   0  0  0  0  0  0  0  0  0  0  0  0
    4.0031   -2.2021   -1.1814 H   0  0  0  0  0  0  0  0  0  0  0  0
  1  2  1  0
  2  3  2  0
  2  4  1  0
  4  5  1  0
  5  6  1  0
  6  7  1  0
  7  8  2  0
  8  9  1  0
  9 10  1  0
 10 11  1  0
 11 12  2  0
 12 13  1  0
 13 14  1  0
 14 15  1  0
 13 16  2  0
 16 17  1  0
 11  7  1  0
 17 10  2  0
  1 18  1  0
  1 19  1  0
  1 20  1  0
  4 21  1  0
  5 22  1  0
  5 23  1  0
  6 24  1  0
  6 25  1  0
  8 26  1  0
  9 27  1  0
 12 28  1  0
 15 29  1  0
 15 30  1  0
 15 31  1  0
 16 32  1  0
 17 33  1  0
M  END
>  <coordinate_phase>  (17) 
MMFF94_after_optimization_status_retained

>  <molecule_id>  (17) 
melatonin

>  <seed>  (17) 
20260928

>  <conformer_id>  (17) 
16

>  <optimization_status>  (17) 
0

>  <energy_kcal_mol>  (17) 
4.585563217108867

>  <sasa_A2>  (17) 
485.88898209013524

>  <sasa_orientation_sd_A2>  (17) 
2.21185671378

>  <sasa_orientation_range_A2>  (17) 
9.329990379502988

>  <sasa_first_half_vs_all_abs_delta_A2>  (17) 
0.45745905822934674

>  <mass_weighted_Rg_A>  (17) 
3.6321386848105988

>  <unweighted_Rg_A>  (17) 
4.049210265846616

$$$$
melatonin_20260928_17
     RDKit          3D

 33 34  0  0  0  0  0  0  0  0999 V2000
   -5.6576    0.9804    0.0859 C   0  0  0  0  0  0  0  0  0  0  0  0
   -4.5233    0.0240   -0.1669 C   0  0  0  0  0  0  0  0  0  0  0  0
   -4.6611   -1.1902   -0.0644 O   0  0  0  0  0  0  0  0  0  0  0  0
   -3.3359    0.6332   -0.4985 N   0  0  0  0  0  0  0  0  0  0  0  0
   -2.1241   -0.1328   -0.7326 C   0  0  0  0  0  0  0  0  0  0  0  0
   -1.4496   -0.5720    0.5696 C   0  0  0  0  0  0  0  0  0  0  0  0
   -0.1473   -1.2659    0.3245 C   0  0  0  0  0  0  0  0  0  0  0  0
    0.0482   -2.6305    0.2386 C   0  0  0  0  0  0  0  0  0  0  0  0
    1.3759   -2.8619    0.0024 N   0  0  0  0  0  0  0  0  0  0  0  0
    2.0597   -1.6712   -0.0717 C   0  0  0  0  0  0  0  0  0  0  0  0
    1.1312   -0.6512    0.1293 C   0  0  0  0  0  0  0  0  0  0  0  0
    1.5869    0.6830    0.1016 C   0  0  0  0  0  0  0  0  0  0  0  0
    2.9422    0.9604   -0.1243 C   0  0  0  0  0  0  0  0  0  0  0  0
    3.2502    2.2953   -0.1279 O   0  0  0  0  0  0  0  0  0  0  0  0
    4.6136    2.6405   -0.3369 C   0  0  0  0  0  0  0  0  0  0  0  0
    3.8419   -0.0862   -0.3219 C   0  0  0  0  0  0  0  0  0  0  0  0
    3.4173   -1.4218   -0.2987 C   0  0  0  0  0  0  0  0  0  0  0  0
   -5.8530    1.0272    1.1603 H   0  0  0  0  0  0  0  0  0  0  0  0
   -5.4276    1.9855   -0.2785 H   0  0  0  0  0  0  0  0  0  0  0  0
   -6.5493    0.6235   -0.4369 H   0  0  0  0  0  0  0  0  0  0  0  0
   -3.2640    1.6412   -0.4588 H   0  0  0  0  0  0  0  0  0  0  0  0
   -1.4561    0.5056   -1.3216 H   0  0  0  0  0  0  0  0  0  0  0  0
   -2.3747   -1.0069   -1.3454 H   0  0  0  0  0  0  0  0  0  0  0  0
   -2.1187   -1.2345    1.1330 H   0  0  0  0  0  0  0  0  0  0  0  0
   -1.2824    0.3018    1.2121 H   0  0  0  0  0  0  0  0  0  0  0  0
   -0.6487   -3.4542    0.3256 H   0  0  0  0  0  0  0  0  0  0  0  0
    1.7975   -3.7740   -0.1042 H   0  0  0  0  0  0  0  0  0  0  0  0
    0.8907    1.5015    0.2569 H   0  0  0  0  0  0  0  0  0  0  0  0
    4.6908    3.7316   -0.3039 H   0  0  0  0  0  0  0  0  0  0  0  0
    4.9570    2.3126   -1.3236 H   0  0  0  0  0  0  0  0  0  0  0  0
    5.2496    2.2380    0.4585 H   0  0  0  0  0  0  0  0  0  0  0  0
    4.8965    0.0988   -0.4993 H   0  0  0  0  0  0  0  0  0  0  0  0
    4.1242   -2.2306   -0.4527 H   0  0  0  0  0  0  0  0  0  0  0  0
  1  2  1  0
  2  3  2  0
  2  4  1  0
  4  5  1  0
  5  6  1  0
  6  7  1  0
  7  8  2  0
  8  9  1  0
  9 10  1  0
 10 11  1  0
 11 12  2  0
 12 13  1  0
 13 14  1  0
 14 15  1  0
 13 16  2  0
 16 17  1  0
 11  7  1  0
 17 10  2  0
  1 18  1  0
  1 19  1  0
  1 20  1  0
  4 21  1  0
  5 22  1  0
  5 23  1  0
  6 24  1  0
  6 25  1  0
  8 26  1  0
  9 27  1  0
 12 28  1  0
 15 29  1  0
 15 30  1  0
 15 31  1  0
 16 32  1  0
 17 33  1  0
M  END
>  <coordinate_phase>  (18) 
MMFF94_after_optimization_status_retained

>  <molecule_id>  (18) 
melatonin

>  <seed>  (18) 
20260928

>  <conformer_id>  (18) 
17

>  <optimization_status>  (18) 
0

>  <energy_kcal_mol>  (18) 
3.174302745067723

>  <sasa_A2>  (18) 
480.4564520056433

>  <sasa_orientation_sd_A2>  (18) 
1.6132749454745086

>  <sasa_orientation_range_A2>  (18) 
7.657288497396223

>  <sasa_first_half_vs_all_abs_delta_A2>  (18) 
0.3515758767957209

>  <mass_weighted_Rg_A>  (18) 
3.6133584349303765

>  <unweighted_Rg_A>  (18) 
4.041865649472132

$$$$
melatonin_20260928_18
     RDKit          3D

 33 34  0  0  0  0  0  0  0  0999 V2000
    5.3806    0.9107   -0.3307 C   0  0  0  0  0  0  0  0  0  0  0  0
    4.2554   -0.0237    0.0241 C   0  0  0  0  0  0  0  0  0  0  0  0
    4.3899   -1.2423    0.0015 O   0  0  0  0  0  0  0  0  0  0  0  0
    3.0783    0.6086    0.3502 N   0  0  0  0  0  0  0  0  0  0  0  0
    1.8795   -0.1384    0.6890 C   0  0  0  0  0  0  0  0  0  0  0  0
    1.1633   -0.6892   -0.5469 C   0  0  0  0  0  0  0  0  0  0  0  0
   -0.1210   -1.3717   -0.1960 C   0  0  0  0  0  0  0  0  0  0  0  0
   -0.2823   -2.7194    0.0600 C   0  0  0  0  0  0  0  0  0  0  0  0
   -1.5995   -2.9491    0.3483 N   0  0  0  0  0  0  0  0  0  0  0  0
   -2.3106   -1.7737    0.2891 C   0  0  0  0  0  0  0  0  0  0  0  0
   -1.4115   -0.7647   -0.0545 C   0  0  0  0  0  0  0  0  0  0  0  0
   -1.8954    0.5573   -0.1855 C   0  0  0  0  0  0  0  0  0  0  0  0
   -3.2531    0.8234    0.0307 C   0  0  0  0  0  0  0  0  0  0  0  0
   -3.8514    2.0523   -0.0627 O   0  0  0  0  0  0  0  0  0  0  0  0
   -3.0246    3.1423   -0.4485 C   0  0  0  0  0  0  0  0  0  0  0  0
   -4.1192   -0.2150    0.3759 C   0  0  0  0  0  0  0  0  0  0  0  0
   -3.6694   -1.5323    0.5114 C   0  0  0  0  0  0  0  0  0  0  0  0
    5.1581    1.9409   -0.0394 H   0  0  0  0  0  0  0  0  0  0  0  0
    6.2862    0.5951    0.1948 H   0  0  0  0  0  0  0  0  0  0  0  0
    5.5483    0.8745   -1.4103 H   0  0  0  0  0  0  0  0  0  0  0  0
    3.0111    1.6140    0.2657 H   0  0  0  0  0  0  0  0  0  0  0  0
    1.2272    0.5452    1.2439 H   0  0  0  0  0  0  0  0  0  0  0  0
    2.1566   -0.9560    1.3652 H   0  0  0  0  0  0  0  0  0  0  0  0
    0.9642    0.1270   -1.2530 H   0  0  0  0  0  0  0  0  0  0  0  0
    1.8179   -1.3915   -1.0781 H   0  0  0  0  0  0  0  0  0  0  0  0
    0.4327   -3.5323    0.0613 H   0  0  0  0  0  0  0  0  0  0  0  0
   -1.9981   -3.8498    0.5741 H   0  0  0  0  0  0  0  0  0  0  0  0
   -1.1956    1.3381   -0.4541 H   0  0  0  0  0  0  0  0  0  0  0  0
   -3.6514    4.0382   -0.4924 H   0  0  0  0  0  0  0  0  0  0  0  0
   -2.6007    2.9839   -1.4457 H   0  0  0  0  0  0  0  0  0  0  0  0
   -2.2385    3.3225    0.2921 H   0  0  0  0  0  0  0  0  0  0  0  0
   -5.1719    0.0040    0.5423 H   0  0  0  0  0  0  0  0  0  0  0  0
   -4.3553   -2.3291    0.7782 H   0  0  0  0  0  0  0  0  0  0  0  0
  1  2  1  0
  2  3  2  0
  2  4  1  0
  4  5  1  0
  5  6  1  0
  6  7  1  0
  7  8  2  0
  8  9  1  0
  9 10  1  0
 10 11  1  0
 11 12  2  0
 12 13  1  0
 13 14  1  0
 14 15  1  0
 13 16  2  0
 16 17  1  0
 11  7  1  0
 17 10  2  0
  1 18  1  0
  1 19  1  0
  1 20  1  0
  4 21  1  0
  5 22  1  0
  5 23  1  0
  6 24  1  0
  6 25  1  0
  8 26  1  0
  9 27  1  0
 12 28  1  0
 15 29  1  0
 15 30  1  0
 15 31  1  0
 16 32  1  0
 17 33  1  0
M  END
>  <coordinate_phase>  (19) 
MMFF94_after_optimization_status_retained

>  <molecule_id>  (19) 
melatonin

>  <seed>  (19) 
20260928

>  <conformer_id>  (19) 
18

>  <optimization_status>  (19) 
0

>  <energy_kcal_mol>  (19) 
3.3516358488650315

>  <sasa_A2>  (19) 
480.52537552998507

>  <sasa_orientation_sd_A2>  (19) 
1.5651440390904015

>  <sasa_orientation_range_A2>  (19) 
6.131172547573442

>  <sasa_first_half_vs_all_abs_delta_A2>  (19) 
0.10739013709888923

>  <mass_weighted_Rg_A>  (19) 
3.5374486247160726

>  <unweighted_Rg_A>  (19) 
3.852943436781297

$$$$
melatonin_20260928_19
     RDKit          3D

 33 34  0  0  0  0  0  0  0  0999 V2000
    4.5703    1.9776    0.4086 C   0  0  0  0  0  0  0  0  0  0  0  0
    3.2446    1.3216    0.1314 C   0  0  0  0  0  0  0  0  0  0  0  0
    2.2904    1.9459   -0.3216 O   0  0  0  0  0  0  0  0  0  0  0  0
    3.1997   -0.0171    0.4472 N   0  0  0  0  0  0  0  0  0  0  0  0
    1.9828   -0.7911    0.2792 C   0  0  0  0  0  0  0  0  0  0  0  0
    0.9911   -0.5730    1.4254 C   0  0  0  0  0  0  0  0  0  0  0  0
   -0.3067   -1.2781    1.1927 C   0  0  0  0  0  0  0  0  0  0  0  0
   -0.7224   -2.4649    1.7633 C   0  0  0  0  0  0  0  0  0  0  0  0
   -1.9720   -2.7563    1.2837 N   0  0  0  0  0  0  0  0  0  0  0  0
   -2.3841   -1.7833    0.4038 C   0  0  0  0  0  0  0  0  0  0  0  0
   -1.3616   -0.8399    0.3281 C   0  0  0  0  0  0  0  0  0  0  0  0
   -1.5301    0.2809   -0.5164 C   0  0  0  0  0  0  0  0  0  0  0  0
   -2.7100    0.4189   -1.2558 C   0  0  0  0  0  0  0  0  0  0  0  0
   -2.9987    1.4500   -2.1108 O   0  0  0  0  0  0  0  0  0  0  0  0
   -1.9976    2.4498   -2.2648 C   0  0  0  0  0  0  0  0  0  0  0  0
   -3.7123   -0.5473   -1.1515 C   0  0  0  0  0  0  0  0  0  0  0  0
   -3.5730   -1.6661   -0.3222 C   0  0  0  0  0  0  0  0  0  0  0  0
    4.4749    2.6180    1.2893 H   0  0  0  0  0  0  0  0  0  0  0  0
    5.3567    1.2395    0.5887 H   0  0  0  0  0  0  0  0  0  0  0  0
    4.8588    2.5800   -0.4572 H   0  0  0  0  0  0  0  0  0  0  0  0
    3.9862   -0.4491    0.9138 H   0  0  0  0  0  0  0  0  0  0  0  0
    2.2751   -1.8454    0.2200 H   0  0  0  0  0  0  0  0  0  0  0  0
    1.5334   -0.5183   -0.6829 H   0  0  0  0  0  0  0  0  0  0  0  0
    1.4404   -0.9181    2.3655 H   0  0  0  0  0  0  0  0  0  0  0  0
    0.7965    0.4981    1.5624 H   0  0  0  0  0  0  0  0  0  0  0  0
   -0.2390   -3.1241    2.4719 H   0  0  0  0  0  0  0  0  0  0  0  0
   -2.5196   -3.5672    1.5361 H   0  0  0  0  0  0  0  0  0  0  0  0
   -0.7296    1.0106   -0.5696 H   0  0  0  0  0  0  0  0  0  0  0  0
   -1.8084    2.9681   -1.3189 H   0  0  0  0  0  0  0  0  0  0  0  0
   -1.0759    2.0265   -2.6776 H   0  0  0  0  0  0  0  0  0  0  0  0
   -2.3724    3.1892   -2.9791 H   0  0  0  0  0  0  0  0  0  0  0  0
   -4.6258   -0.4279   -1.7303 H   0  0  0  0  0  0  0  0  0  0  0  0
   -4.3616   -2.4074   -0.2526 H   0  0  0  0  0  0  0  0  0  0  0  0
  1  2  1  0
  2  3  2  0
  2  4  1  0
  4  5  1  0
  5  6  1  0
  6  7  1  0
  7  8  2  0
  8  9  1  0
  9 10  1  0
 10 11  1  0
 11 12  2  0
 12 13  1  0
 13 14  1  0
 14 15  1  0
 13 16  2  0
 16 17  1  0
 11  7  1  0
 17 10  2  0
  1 18  1  0
  1 19  1  0
  1 20  1  0
  4 21  1  0
  5 22  1  0
  5 23  1  0
  6 24  1  0
  6 25  1  0
  8 26  1  0
  9 27  1  0
 12 28  1  0
 15 29  1  0
 15 30  1  0
 15 31  1  0
 16 32  1  0
 17 33  1  0
M  END
>  <coordinate_phase>  (20) 
MMFF94_after_optimization_status_retained

>  <molecule_id>  (20) 
melatonin

>  <seed>  (20) 
20260928

>  <conformer_id>  (20) 
19

>  <optimization_status>  (20) 
0

>  <energy_kcal_mol>  (20) 
2.086855653258864

>  <sasa_A2>  (20) 
467.23297300762823

>  <sasa_orientation_sd_A2>  (20) 
1.607683387226064

>  <sasa_orientation_range_A2>  (20) 
6.755966979409038

>  <sasa_first_half_vs_all_abs_delta_A2>  (20) 
0.5174384761746751

>  <mass_weighted_Rg_A>  (20) 
3.282502127003091

>  <unweighted_Rg_A>  (20) 
3.6750424201678698

$$$$
melatonin_20260929_20
     RDKit          3D

 33 34  0  0  0  0  0  0  0  0999 V2000
    4.4009    2.1219    1.0602 C   0  0  0  0  0  0  0  0  0  0  0  0
    3.0799    1.4179    0.9054 C   0  0  0  0  0  0  0  0  0  0  0  0
    2.0100    1.9962    1.0677 O   0  0  0  0  0  0  0  0  0  0  0  0
    3.1844    0.0920    0.5517 N   0  0  0  0  0  0  0  0  0  0  0  0
    2.0045   -0.7224    0.3224 C   0  0  0  0  0  0  0  0  0  0  0  0
    1.3951   -0.4874   -1.0626 C   0  0  0  0  0  0  0  0  0  0  0  0
    0.1160   -1.2380   -1.2528 C   0  0  0  0  0  0  0  0  0  0  0  0
   -0.0624   -2.4126   -1.9566 C   0  0  0  0  0  0  0  0  0  0  0  0
   -1.3859   -2.7584   -1.8849 N   0  0  0  0  0  0  0  0  0  0  0  0
   -2.0810   -1.8332   -1.1422 C   0  0  0  0  0  0  0  0  0  0  0  0
   -1.1662   -0.8647   -0.7341 C   0  0  0  0  0  0  0  0  0  0  0  0
   -1.6243    0.2164    0.0527 C   0  0  0  0  0  0  0  0  0  0  0  0
   -2.9763    0.2911    0.4056 C   0  0  0  0  0  0  0  0  0  0  0  0
   -3.5486    1.2789    1.1636 O   0  0  0  0  0  0  0  0  0  0  0  0
   -2.6799    2.3000    1.6414 C   0  0  0  0  0  0  0  0  0  0  0  0
   -3.8623   -0.6984   -0.0242 C   0  0  0  0  0  0  0  0  0  0  0  0
   -3.4367   -1.7789   -0.8053 C   0  0  0  0  0  0  0  0  0  0  0  0
    5.2334    1.4143    1.1041 H   0  0  0  0  0  0  0  0  0  0  0  0
    4.3922    2.6975    1.9899 H   0  0  0  0  0  0  0  0  0  0  0  0
    4.5494    2.7938    0.2108 H   0  0  0  0  0  0  0  0  0  0  0  0
    4.0910   -0.2985    0.3316 H   0  0  0  0  0  0  0  0  0  0  0  0
    2.3066   -1.7695    0.4360 H   0  0  0  0  0  0  0  0  0  0  0  0
    1.2766   -0.5010    1.1117 H   0  0  0  0  0  0  0  0  0  0  0  0
    1.2088    0.5823   -1.2206 H   0  0  0  0  0  0  0  0  0  0  0  0
    2.1191   -0.7820   -1.8332 H   0  0  0  0  0  0  0  0  0  0  0  0
    0.6369   -3.0291   -2.5055 H   0  0  0  0  0  0  0  0  0  0  0  0
   -1.8001   -3.5739   -2.3143 H   0  0  0  0  0  0  0  0  0  0  0  0
   -0.9060    0.9660    0.3661 H   0  0  0  0  0  0  0  0  0  0  0  0
   -1.9089    1.8871    2.3004 H   0  0  0  0  0  0  0  0  0  0  0  0
   -3.2806    2.9994    2.2308 H   0  0  0  0  0  0  0  0  0  0  0  0
   -2.2358    2.8605    0.8122 H   0  0  0  0  0  0  0  0  0  0  0  0
   -4.9114   -0.6282    0.2555 H   0  0  0  0  0  0  0  0  0  0  0  0
   -4.1382   -2.5391   -1.1311 H   0  0  0  0  0  0  0  0  0  0  0  0
  1  2  1  0
  2  3  2  0
  2  4  1  0
  4  5  1  0
  5  6  1  0
  6  7  1  0
  7  8  2  0
  8  9  1  0
  9 10  1  0
 10 11  1  0
 11 12  2  0
 12 13  1  0
 13 14  1  0
 14 15  1  0
 13 16  2  0
 16 17  1  0
 11  7  1  0
 17 10  2  0
  1 18  1  0
  1 19  1  0
  1 20  1  0
  4 21  1  0
  5 22  1  0
  5 23  1  0
  6 24  1  0
  6 25  1  0
  8 26  1  0
  9 27  1  0
 12 28  1  0
 15 29  1  0
 15 30  1  0
 15 31  1  0
 16 32  1  0
 17 33  1  0
M  END
>  <coordinate_phase>  (21) 
MMFF94_after_optimization_status_retained

>  <molecule_id>  (21) 
melatonin

>  <seed>  (21) 
20260929

>  <conformer_id>  (21) 
20

>  <optimization_status>  (21) 
0

>  <energy_kcal_mol>  (21) 
2.086855652459313

>  <sasa_A2>  (21) 
467.2775281271465

>  <sasa_orientation_sd_A2>  (21) 
1.533294714407616

>  <sasa_orientation_range_A2>  (21) 
5.615550571166693

>  <sasa_first_half_vs_all_abs_delta_A2>  (21) 
0.20150515202226416

>  <mass_weighted_Rg_A>  (21) 
3.282502451344163

>  <unweighted_Rg_A>  (21) 
3.675042900765187

$$$$
melatonin_20260929_21
     RDKit          3D

 33 34  0  0  0  0  0  0  0  0999 V2000
    5.5041    0.3266    1.6128 C   0  0  0  0  0  0  0  0  0  0  0  0
    4.4573    0.5410    0.5530 C   0  0  0  0  0  0  0  0  0  0  0  0
    4.6009    1.3618   -0.3467 O   0  0  0  0  0  0  0  0  0  0  0  0
    3.3375   -0.2436    0.7001 N   0  0  0  0  0  0  0  0  0  0  0  0
    2.2067   -0.1378   -0.2054 C   0  0  0  0  0  0  0  0  0  0  0  0
    1.3147    1.0653    0.1116 C   0  0  0  0  0  0  0  0  0  0  0  0
    0.0953    1.1074   -0.7538 C   0  0  0  0  0  0  0  0  0  0  0  0
   -0.0506    1.8230   -1.9261 C   0  0  0  0  0  0  0  0  0  0  0  0
   -1.3068    1.5942   -2.4175 N   0  0  0  0  0  0  0  0  0  0  0  0
   -1.9919    0.7365   -1.5894 C   0  0  0  0  0  0  0  0  0  0  0  0
   -1.1391    0.4155   -0.5346 C   0  0  0  0  0  0  0  0  0  0  0  0
   -1.6116   -0.4599    0.4648 C   0  0  0  0  0  0  0  0  0  0  0  0
   -2.9083   -0.9864    0.3851 C   0  0  0  0  0  0  0  0  0  0  0  0
   -3.2402   -1.8232    1.4179 O   0  0  0  0  0  0  0  0  0  0  0  0
   -4.5494   -2.3774    1.4015 C   0  0  0  0  0  0  0  0  0  0  0  0
   -3.7328   -0.6429   -0.6854 C   0  0  0  0  0  0  0  0  0  0  0  0
   -3.2900    0.2255   -1.6925 C   0  0  0  0  0  0  0  0  0  0  0  0
    5.3225   -0.5902    2.1806 H   0  0  0  0  0  0  0  0  0  0  0  0
    6.4844    0.2438    1.1353 H   0  0  0  0  0  0  0  0  0  0  0  0
    5.4980    1.1776    2.2988 H   0  0  0  0  0  0  0  0  0  0  0  0
    3.2371   -0.8202    1.5250 H   0  0  0  0  0  0  0  0  0  0  0  0
    1.6441   -1.0740   -0.1184 H   0  0  0  0  0  0  0  0  0  0  0  0
    2.5850   -0.0713   -1.2325 H   0  0  0  0  0  0  0  0  0  0  0  0
    1.8837    1.9957   -0.0095 H   0  0  0  0  0  0  0  0  0  0  0  0
    1.0129    1.0338    1.1663 H   0  0  0  0  0  0  0  0  0  0  0  0
    0.6368    2.4750   -2.4499 H   0  0  0  0  0  0  0  0  0  0  0  0
   -1.6812    1.9944   -3.2665 H   0  0  0  0  0  0  0  0  0  0  0  0
   -0.9743   -0.7289    1.3016 H   0  0  0  0  0  0  0  0  0  0  0  0
   -5.3114   -1.5931    1.4588 H   0  0  0  0  0  0  0  0  0  0  0  0
   -4.6985   -3.0118    0.5215 H   0  0  0  0  0  0  0  0  0  0  0  0
   -4.6557   -3.0094    2.2885 H   0  0  0  0  0  0  0  0  0  0  0  0
   -4.7408   -1.0355   -0.7731 H   0  0  0  0  0  0  0  0  0  0  0  0
   -3.9383    0.4884   -2.5220 H   0  0  0  0  0  0  0  0  0  0  0  0
  1  2  1  0
  2  3  2  0
  2  4  1  0
  4  5  1  0
  5  6  1  0
  6  7  1  0
  7  8  2  0
  8  9  1  0
  9 10  1  0
 10 11  1  0
 11 12  2  0
 12 13  1  0
 13 14  1  0
 14 15  1  0
 13 16  2  0
 16 17  1  0
 11  7  1  0
 17 10  2  0
  1 18  1  0
  1 19  1  0
  1 20  1  0
  4 21  1  0
  5 22  1  0
  5 23  1  0
  6 24  1  0
  6 25  1  0
  8 26  1  0
  9 27  1  0
 12 28  1  0
 15 29  1  0
 15 30  1  0
 15 31  1  0
 16 32  1  0
 17 33  1  0
M  END
>  <coordinate_phase>  (22) 
MMFF94_after_optimization_status_retained

>  <molecule_id>  (22) 
melatonin

>  <seed>  (22) 
20260929

>  <conformer_id>  (22) 
21

>  <optimization_status>  (22) 
0

>  <energy_kcal_mol>  (22) 
3.1743027453374655

>  <sasa_A2>  (22) 
480.65987082599105

>  <sasa_orientation_sd_A2>  (22) 
1.6884644180408988

>  <sasa_orientation_range_A2>  (22) 
6.478057319450841

>  <sasa_first_half_vs_all_abs_delta_A2>  (22) 
0.4371562563084126

>  <mass_weighted_Rg_A>  (22) 
3.613359014470344

>  <unweighted_Rg_A>  (22) 
4.04186642738946

$$$$
melatonin_20260929_22
     RDKit          3D

 33 34  0  0  0  0  0  0  0  0999 V2000
   -4.7254    0.8230   -1.2782 C   0  0  0  0  0  0  0  0  0  0  0  0
   -3.9295   -0.4539   -1.3193 C   0  0  0  0  0  0  0  0  0  0  0  0
   -4.1806   -1.3520   -2.1157 O   0  0  0  0  0  0  0  0  0  0  0  0
   -2.9092   -0.5067   -0.3973 N   0  0  0  0  0  0  0  0  0  0  0  0
   -1.9429   -1.5922   -0.4199 C   0  0  0  0  0  0  0  0  0  0  0  0
   -1.1988   -1.7482    0.9085 C   0  0  0  0  0  0  0  0  0  0  0  0
   -0.3821   -0.5464    1.2812 C   0  0  0  0  0  0  0  0  0  0  0  0
   -0.6857    0.3764    2.2643 C   0  0  0  0  0  0  0  0  0  0  0  0
    0.3100    1.3149    2.2974 N   0  0  0  0  0  0  0  0  0  0  0  0
    1.2626    1.0298    1.3481 C   0  0  0  0  0  0  0  0  0  0  0  0
    0.8602   -0.1361    0.6986 C   0  0  0  0  0  0  0  0  0  0  0  0
    1.6837   -0.6488   -0.3248 C   0  0  0  0  0  0  0  0  0  0  0  0
    2.8711    0.0108   -0.6716 C   0  0  0  0  0  0  0  0  0  0  0  0
    3.5747   -0.5911   -1.6809 O   0  0  0  0  0  0  0  0  0  0  0  0
    4.7893    0.0305   -2.0802 C   0  0  0  0  0  0  0  0  0  0  0  0
    3.2397    1.1761   -0.0011 C   0  0  0  0  0  0  0  0  0  0  0  0
    2.4426    1.7066    1.0223 C   0  0  0  0  0  0  0  0  0  0  0  0
   -5.7912    0.5818   -1.3217 H   0  0  0  0  0  0  0  0  0  0  0  0
   -4.4516    1.4432   -2.1355 H   0  0  0  0  0  0  0  0  0  0  0  0
   -4.5399    1.3834   -0.3576 H   0  0  0  0  0  0  0  0  0  0  0  0
   -2.5873    0.3715   -0.0081 H   0  0  0  0  0  0  0  0  0  0  0  0
   -1.2487   -1.3883   -1.2429 H   0  0  0  0  0  0  0  0  0  0  0  0
   -2.4667   -2.5255   -0.6559 H   0  0  0  0  0  0  0  0  0  0  0  0
   -1.9221   -1.9567    1.7072 H   0  0  0  0  0  0  0  0  0  0  0  0
   -0.5377   -2.6214    0.8487 H   0  0  0  0  0  0  0  0  0  0  0  0
   -1.5220    0.4376    2.9486 H   0  0  0  0  0  0  0  0  0  0  0  0
    0.3494    2.1021    2.9300 H   0  0  0  0  0  0  0  0  0  0  0  0
    1.4039   -1.5576   -0.8498 H   0  0  0  0  0  0  0  0  0  0  0  0
    5.2219   -0.5688   -2.8872 H   0  0  0  0  0  0  0  0  0  0  0  0
    5.5115    0.0510   -1.2573 H   0  0  0  0  0  0  0  0  0  0  0  0
    4.6077    1.0362   -2.4734 H   0  0  0  0  0  0  0  0  0  0  0  0
    4.1538    1.7065   -0.2481 H   0  0  0  0  0  0  0  0  0  0  0  0
    2.7393    2.6123    1.5414 H   0  0  0  0  0  0  0  0  0  0  0  0
  1  2  1  0
  2  3  2  0
  2  4  1  0
  4  5  1  0
  5  6  1  0
  6  7  1  0
  7  8  2  0
  8  9  1  0
  9 10  1  0
 10 11  1  0
 11 12  2  0
 12 13  1  0
 13 14  1  0
 14 15  1  0
 13 16  2  0
 16 17  1  0
 11  7  1  0
 17 10  2  0
  1 18  1  0
  1 19  1  0
  1 20  1  0
  4 21  1  0
  5 22  1  0
  5 23  1  0
  6 24  1  0
  6 25  1  0
  8 26  1  0
  9 27  1  0
 12 28  1  0
 15 29  1  0
 15 30  1  0
 15 31  1  0
 16 32  1  0
 17 33  1  0
M  END
>  <coordinate_phase>  (23) 
MMFF94_after_optimization_status_retained

>  <molecule_id>  (23) 
melatonin

>  <seed>  (23) 
20260929

>  <conformer_id>  (23) 
22

>  <optimization_status>  (23) 
0

>  <energy_kcal_mol>  (23) 
2.6355160221443557

>  <sasa_A2>  (23) 
479.011974655818

>  <sasa_orientation_sd_A2>  (23) 
1.8422552564118144

>  <sasa_orientation_range_A2>  (23) 
7.971900945451296

>  <sasa_first_half_vs_all_abs_delta_A2>  (23) 
0.4783711282527747

>  <mass_weighted_Rg_A>  (23) 
3.4046079604472115

>  <unweighted_Rg_A>  (23) 
3.7909258590254438

$$$$
melatonin_20260929_23
     RDKit          3D

 33 34  0  0  0  0  0  0  0  0999 V2000
    5.5492    1.5023    0.5096 C   0  0  0  0  0  0  0  0  0  0  0  0
    4.5292    0.3953    0.4882 C   0  0  0  0  0  0  0  0  0  0  0  0
    4.7513   -0.7021    0.9876 O   0  0  0  0  0  0  0  0  0  0  0  0
    3.3448    0.7384   -0.1265 N   0  0  0  0  0  0  0  0  0  0  0  0
    2.2056   -0.1653   -0.1010 C   0  0  0  0  0  0  0  0  0  0  0  0
    1.2301    0.1213   -1.2424 C   0  0  0  0  0  0  0  0  0  0  0  0
    0.0198   -0.7543   -1.1926 C   0  0  0  0  0  0  0  0  0  0  0  0
   -0.1524   -1.9527   -1.8576 C   0  0  0  0  0  0  0  0  0  0  0  0
   -1.3907   -2.4449   -1.5448 N   0  0  0  0  0  0  0  0  0  0  0  0
   -2.0391   -1.5891   -0.6860 C   0  0  0  0  0  0  0  0  0  0  0  0
   -1.1797   -0.5182   -0.4468 C   0  0  0  0  0  0  0  0  0  0  0  0
   -1.6154    0.5090    0.4156 C   0  0  0  0  0  0  0  0  0  0  0  0
   -2.8833    0.4404    1.0094 C   0  0  0  0  0  0  0  0  0  0  0  0
   -3.1813    1.5012    1.8235 O   0  0  0  0  0  0  0  0  0  0  0  0
   -4.4476    1.4808    2.4696 C   0  0  0  0  0  0  0  0  0  0  0  0
   -3.7159   -0.6463    0.7459 C   0  0  0  0  0  0  0  0  0  0  0  0
   -3.3090   -1.6816   -0.1068 C   0  0  0  0  0  0  0  0  0  0  0  0
    6.5284    1.0919    0.2476 H   0  0  0  0  0  0  0  0  0  0  0  0
    5.5866    1.9354    1.5125 H   0  0  0  0  0  0  0  0  0  0  0  0
    5.3053    2.2878   -0.2112 H   0  0  0  0  0  0  0  0  0  0  0  0
    3.1535    1.7250   -0.2445 H   0  0  0  0  0  0  0  0  0  0  0  0
    2.5630   -1.2006   -0.1527 H   0  0  0  0  0  0  0  0  0  0  0  0
    1.7180   -0.0376    0.8726 H   0  0  0  0  0  0  0  0  0  0  0  0
    0.9214    1.1741   -1.2122 H   0  0  0  0  0  0  0  0  0  0  0  0
    1.7430   -0.0125   -2.2037 H   0  0  0  0  0  0  0  0  0  0  0  0
    0.5037   -2.4980   -2.5234 H   0  0  0  0  0  0  0  0  0  0  0  0
   -1.7769   -3.3125   -1.8901 H   0  0  0  0  0  0  0  0  0  0  0  0
   -0.9712    1.3575    0.6251 H   0  0  0  0  0  0  0  0  0  0  0  0
   -5.2635    1.5031    1.7398 H   0  0  0  0  0  0  0  0  0  0  0  0
   -4.5366    0.6178    3.1378 H   0  0  0  0  0  0  0  0  0  0  0  0
   -4.5248    2.3845    3.0820 H   0  0  0  0  0  0  0  0  0  0  0  0
   -4.7024   -0.7255    1.1912 H   0  0  0  0  0  0  0  0  0  0  0  0
   -3.9629   -2.5246   -0.3057 H   0  0  0  0  0  0  0  0  0  0  0  0
  1  2  1  0
  2  3  2  0
  2  4  1  0
  4  5  1  0
  5  6  1  0
  6  7  1  0
  7  8  2  0
  8  9  1  0
  9 10  1  0
 10 11  1  0
 11 12  2  0
 12 13  1  0
 13 14  1  0
 14 15  1  0
 13 16  2  0
 16 17  1  0
 11  7  1  0
 17 10  2  0
  1 18  1  0
  1 19  1  0
  1 20  1  0
  4 21  1  0
  5 22  1  0
  5 23  1  0
  6 24  1  0
  6 25  1  0
  8 26  1  0
  9 27  1  0
 12 28  1  0
 15 29  1  0
 15 30  1  0
 15 31  1  0
 16 32  1  0
 17 33  1  0
M  END
>  <coordinate_phase>  (24) 
MMFF94_after_optimization_status_retained

>  <molecule_id>  (24) 
melatonin

>  <seed>  (24) 
20260929

>  <conformer_id>  (24) 
23

>  <optimization_status>  (24) 
0

>  <energy_kcal_mol>  (24) 
4.585563217520059

>  <sasa_A2>  (24) 
485.92731653167783

>  <sasa_orientation_sd_A2>  (24) 
1.5525806167237746

>  <sasa_orientation_range_A2>  (24) 
5.64074621368195

>  <sasa_first_half_vs_all_abs_delta_A2>  (24) 
0.3513747910969869

>  <mass_weighted_Rg_A>  (24) 
3.6321381466347167

>  <unweighted_Rg_A>  (24) 
4.049209898701904

$$$$
melatonin_20260929_24
     RDKit          3D

 33 34  0  0  0  0  0  0  0  0999 V2000
    3.8817    0.9721   -2.8573 C   0  0  0  0  0  0  0  0  0  0  0  0
    2.9363    1.9140   -2.1610 C   0  0  0  0  0  0  0  0  0  0  0  0
    2.6775    3.0257   -2.6094 O   0  0  0  0  0  0  0  0  0  0  0  0
    2.3983    1.4090   -0.9994 N   0  0  0  0  0  0  0  0  0  0  0  0
    1.3409    2.1197   -0.2999 C   0  0  0  0  0  0  0  0  0  0  0  0
    1.2010    1.6823    1.1601 C   0  0  0  0  0  0  0  0  0  0  0  0
    0.8301    0.2375    1.3187 C   0  0  0  0  0  0  0  0  0  0  0  0
    1.6664   -0.7811    1.7348 C   0  0  0  0  0  0  0  0  0  0  0  0
    0.9498   -1.9470    1.7542 N   0  0  0  0  0  0  0  0  0  0  0  0
   -0.3442   -1.7154    1.3518 C   0  0  0  0  0  0  0  0  0  0  0  0
   -0.4524   -0.3529    1.0781 C   0  0  0  0  0  0  0  0  0  0  0  0
   -1.7004    0.1457    0.6512 C   0  0  0  0  0  0  0  0  0  0  0  0
   -2.7935   -0.7200    0.5062 C   0  0  0  0  0  0  0  0  0  0  0  0
   -3.9437   -0.1077    0.0841 O   0  0  0  0  0  0  0  0  0  0  0  0
   -5.0894   -0.9326   -0.0835 C   0  0  0  0  0  0  0  0  0  0  0  0
   -2.6465   -2.0775    0.7871 C   0  0  0  0  0  0  0  0  0  0  0  0
   -1.4191   -2.6002    1.2163 C   0  0  0  0  0  0  0  0  0  0  0  0
    4.1934    0.1557   -2.1996 H   0  0  0  0  0  0  0  0  0  0  0  0
    4.7751    1.5234   -3.1634 H   0  0  0  0  0  0  0  0  0  0  0  0
    3.3864    0.5532   -3.7369 H   0  0  0  0  0  0  0  0  0  0  0  0
    2.4215    0.4040   -0.8739 H   0  0  0  0  0  0  0  0  0  0  0  0
    0.4134    1.9470   -0.8574 H   0  0  0  0  0  0  0  0  0  0  0  0
    1.5525    3.1943   -0.3398 H   0  0  0  0  0  0  0  0  0  0  0  0
    2.1437    1.8746    1.6884 H   0  0  0  0  0  0  0  0  0  0  0  0
    0.4370    2.3001    1.6478 H   0  0  0  0  0  0  0  0  0  0  0  0
    2.7083   -0.7711    2.0275 H   0  0  0  0  0  0  0  0  0  0  0  0
    1.3109   -2.8497    2.0299 H   0  0  0  0  0  0  0  0  0  0  0  0
   -1.8227    1.2026    0.4329 H   0  0  0  0  0  0  0  0  0  0  0  0
   -4.9194   -1.6930   -0.8528 H   0  0  0  0  0  0  0  0  0  0  0  0
   -5.3897   -1.3889    0.8655 H   0  0  0  0  0  0  0  0  0  0  0  0
   -5.9129   -0.2961   -0.4216 H   0  0  0  0  0  0  0  0  0  0  0  0
   -3.4759   -2.7700    0.6846 H   0  0  0  0  0  0  0  0  0  0  0  0
   -1.3148   -3.6578    1.4362 H   0  0  0  0  0  0  0  0  0  0  0  0
  1  2  1  0
  2  3  2  0
  2  4  1  0
  4  5  1  0
  5  6  1  0
  6  7  1  0
  7  8  2  0
  8  9  1  0
  9 10  1  0
 10 11  1  0
 11 12  2  0
 12 13  1  0
 13 14  1  0
 14 15  1  0
 13 16  2  0
 16 17  1  0
 11  7  1  0
 17 10  2  0
  1 18  1  0
  1 19  1  0
  1 20  1  0
  4 21  1  0
  5 22  1  0
  5 23  1  0
  6 24  1  0
  6 25  1  0
  8 26  1  0
  9 27  1  0
 12 28  1  0
 15 29  1  0
 15 30  1  0
 15 31  1  0
 16 32  1  0
 17 33  1  0
M  END
>  <coordinate_phase>  (25) 
MMFF94_after_optimization_status_retained

>  <molecule_id>  (25) 
melatonin

>  <seed>  (25) 
20260929

>  <conformer_id>  (25) 
24

>  <optimization_status>  (25) 
0

>  <energy_kcal_mol>  (25) 
2.635516023555928

>  <sasa_A2>  (25) 
478.77035961782866

>  <sasa_orientation_sd_A2>  (25) 
1.7369816079845837

>  <sasa_orientation_range_A2>  (25) 
6.452978122758793

>  <sasa_first_half_vs_all_abs_delta_A2>  (25) 
0.4600436640756129

>  <mass_weighted_Rg_A>  (25) 
3.4046070657265304

>  <unweighted_Rg_A>  (25) 
3.7909245521698938

$$$$
melatonin_20260929_25
     RDKit          3D

 33 34  0  0  0  0  0  0  0  0999 V2000
   -5.6531    1.0104    0.0170 C   0  0  0  0  0  0  0  0  0  0  0  0
   -4.5191    0.0222   -0.0331 C   0  0  0  0  0  0  0  0  0  0  0  0
   -4.6291   -1.0667   -0.5863 O   0  0  0  0  0  0  0  0  0  0  0  0
   -3.3643    0.4584    0.5728 N   0  0  0  0  0  0  0  0  0  0  0  0
   -2.1552   -0.3464    0.5806 C   0  0  0  0  0  0  0  0  0  0  0  0
   -1.3972   -0.2754   -0.7475 C   0  0  0  0  0  0  0  0  0  0  0  0
   -0.0996   -1.0179   -0.6973 C   0  0  0  0  0  0  0  0  0  0  0  0
    0.1146   -2.3181   -1.1110 C   0  0  0  0  0  0  0  0  0  0  0  0
    1.4298   -2.6279   -0.8962 N   0  0  0  0  0  0  0  0  0  0  0  0
    2.0869   -1.5534   -0.3445 C   0  0  0  0  0  0  0  0  0  0  0  0
    1.1541   -0.5264   -0.2102 C   0  0  0  0  0  0  0  0  0  0  0  0
    1.5837    0.6999    0.3376 C   0  0  0  0  0  0  0  0  0  0  0  0
    2.9181    0.8663    0.7331 C   0  0  0  0  0  0  0  0  0  0  0  0
    3.2018    2.1031    1.2497 O   0  0  0  0  0  0  0  0  0  0  0  0
    4.5441    2.3386    1.6550 C   0  0  0  0  0  0  0  0  0  0  0  0
    3.8229   -0.1839    0.5839 C   0  0  0  0  0  0  0  0  0  0  0  0
    3.4241   -1.4133    0.0417 C   0  0  0  0  0  0  0  0  0  0  0  0
   -5.4629    1.8075    0.7411 H   0  0  0  0  0  0  0  0  0  0  0  0
   -6.5678    0.4901    0.3146 H   0  0  0  0  0  0  0  0  0  0  0  0
   -5.7855    1.4532   -0.9735 H   0  0  0  0  0  0  0  0  0  0  0  0
   -3.3081    1.4090    0.9137 H   0  0  0  0  0  0  0  0  0  0  0  0
   -2.4261   -1.3840    0.8095 H   0  0  0  0  0  0  0  0  0  0  0  0
   -1.5345    0.0244    1.4040 H   0  0  0  0  0  0  0  0  0  0  0  0
   -1.2077    0.7735   -1.0092 H   0  0  0  0  0  0  0  0  0  0  0  0
   -2.0200   -0.6781   -1.5562 H   0  0  0  0  0  0  0  0  0  0  0  0
   -0.5614   -3.0470   -1.5396 H   0  0  0  0  0  0  0  0  0  0  0  0
    1.8604   -3.5168   -1.1093 H   0  0  0  0  0  0  0  0  0  0  0  0
    0.8836    1.5216    0.4540 H   0  0  0  0  0  0  0  0  0  0  0  0
    4.8343    1.6664    2.4692 H   0  0  0  0  0  0  0  0  0  0  0  0
    4.6038    3.3637    2.0333 H   0  0  0  0  0  0  0  0  0  0  0  0
    5.2330    2.2561    0.8079 H   0  0  0  0  0  0  0  0  0  0  0  0
    4.8617   -0.0837    0.8816 H   0  0  0  0  0  0  0  0  0  0  0  0
    4.1348   -2.2255   -0.0717 H   0  0  0  0  0  0  0  0  0  0  0  0
  1  2  1  0
  2  3  2  0
  2  4  1  0
  4  5  1  0
  5  6  1  0
  6  7  1  0
  7  8  2  0
  8  9  1  0
  9 10  1  0
 10 11  1  0
 11 12  2  0
 12 13  1  0
 13 14  1  0
 14 15  1  0
 13 16  2  0
 16 17  1  0
 11  7  1  0
 17 10  2  0
  1 18  1  0
  1 19  1  0
  1 20  1  0
  4 21  1  0
  5 22  1  0
  5 23  1  0
  6 24  1  0
  6 25  1  0
  8 26  1  0
  9 27  1  0
 12 28  1  0
 15 29  1  0
 15 30  1  0
 15 31  1  0
 16 32  1  0
 17 33  1  0
M  END
>  <coordinate_phase>  (26) 
MMFF94_after_optimization_status_retained

>  <molecule_id>  (26) 
melatonin

>  <seed>  (26) 
20260929

>  <conformer_id>  (26) 
25

>  <optimization_status>  (26) 
0

>  <energy_kcal_mol>  (26) 
3.1743027457770214

>  <sasa_A2>  (26) 
481.40748600608094

>  <sasa_orientation_sd_A2>  (26) 
1.5744850119488043

>  <sasa_orientation_range_A2>  (26) 
6.217212817412474

>  <sasa_first_half_vs_all_abs_delta_A2>  (26) 
0.36901998376401934

>  <mass_weighted_Rg_A>  (26) 
3.6133580654977586

>  <unweighted_Rg_A>  (26) 
4.041865595365221

$$$$
melatonin_20260929_26
     RDKit          3D

 33 34  0  0  0  0  0  0  0  0999 V2000
   -5.5885    1.3169   -0.0376 C   0  0  0  0  0  0  0  0  0  0  0  0
   -4.5067    0.2743   -0.1258 C   0  0  0  0  0  0  0  0  0  0  0  0
   -4.7237   -0.9098    0.1084 O   0  0  0  0  0  0  0  0  0  0  0  0
   -3.2714    0.7716   -0.4688 N   0  0  0  0  0  0  0  0  0  0  0  0
   -2.1012   -0.0844   -0.5566 C   0  0  0  0  0  0  0  0  0  0  0  0
   -1.5080   -0.4061    0.8175 C   0  0  0  0  0  0  0  0  0  0  0  0
   -0.2425   -1.1972    0.7148 C   0  0  0  0  0  0  0  0  0  0  0  0
   -0.1290   -2.5714    0.7949 C   0  0  0  0  0  0  0  0  0  0  0  0
    1.1901   -2.9042    0.6493 N   0  0  0  0  0  0  0  0  0  0  0  0
    1.9491   -1.7714    0.4716 C   0  0  0  0  0  0  0  0  0  0  0  0
    1.0785   -0.6836    0.5109 C   0  0  0  0  0  0  0  0  0  0  0  0
    1.6170    0.6100    0.3521 C   0  0  0  0  0  0  0  0  0  0  0  0
    2.9949    0.7812    0.1598 C   0  0  0  0  0  0  0  0  0  0  0  0
    3.3852    2.0867    0.0179 O   0  0  0  0  0  0  0  0  0  0  0  0
    4.7746    2.3266   -0.1649 C   0  0  0  0  0  0  0  0  0  0  0  0
    3.8349   -0.3310    0.1257 C   0  0  0  0  0  0  0  0  0  0  0  0
    3.3275   -1.6282    0.2816 C   0  0  0  0  0  0  0  0  0  0  0  0
   -6.4791    0.9528   -0.5574 H   0  0  0  0  0  0  0  0  0  0  0  0
   -5.2821    2.2576   -0.5034 H   0  0  0  0  0  0  0  0  0  0  0  0
   -5.8235    1.5001    1.0141 H   0  0  0  0  0  0  0  0  0  0  0  0
   -3.1386    1.7717   -0.5413 H   0  0  0  0  0  0  0  0  0  0  0  0
   -1.3718    0.4414   -1.1827 H   0  0  0  0  0  0  0  0  0  0  0  0
   -2.3809   -1.0085   -1.0765 H   0  0  0  0  0  0  0  0  0  0  0  0
   -2.2390   -0.9588    1.4210 H   0  0  0  0  0  0  0  0  0  0  0  0
   -1.3125    0.5259    1.3630 H   0  0  0  0  0  0  0  0  0  0  0  0
   -0.8787   -3.3380    0.9428 H   0  0  0  0  0  0  0  0  0  0  0  0
    1.5581   -3.8451    0.6677 H   0  0  0  0  0  0  0  0  0  0  0  0
    0.9674    1.4795    0.3799 H   0  0  0  0  0  0  0  0  0  0  0  0
    4.9182    3.4078   -0.2534 H   0  0  0  0  0  0  0  0  0  0  0  0
    5.1362    1.8664   -1.0904 H   0  0  0  0  0  0  0  0  0  0  0  0
    5.3521    1.9843    0.7002 H   0  0  0  0  0  0  0  0  0  0  0  0
    4.9052   -0.2286   -0.0220 H   0  0  0  0  0  0  0  0  0  0  0  0
    3.9883   -2.4886    0.2545 H   0  0  0  0  0  0  0  0  0  0  0  0
  1  2  1  0
  2  3  2  0
  2  4  1  0
  4  5  1  0
  5  6  1  0
  6  7  1  0
  7  8  2  0
  8  9  1  0
  9 10  1  0
 10 11  1  0
 11 12  2  0
 12 13  1  0
 13 14  1  0
 14 15  1  0
 13 16  2  0
 16 17  1  0
 11  7  1  0
 17 10  2  0
  1 18  1  0
  1 19  1  0
  1 20  1  0
  4 21  1  0
  5 22  1  0
  5 23  1  0
  6 24  1  0
  6 25  1  0
  8 26  1  0
  9 27  1  0
 12 28  1  0
 15 29  1  0
 15 30  1  0
 15 31  1  0
 16 32  1  0
 17 33  1  0
M  END
>  <coordinate_phase>  (27) 
MMFF94_after_optimization_status_retained

>  <molecule_id>  (27) 
melatonin

>  <seed>  (27) 
20260929

>  <conformer_id>  (27) 
26

>  <optimization_status>  (27) 
0

>  <energy_kcal_mol>  (27) 
3.1743027451994337

>  <sasa_A2>  (27) 
480.8702327165845

>  <sasa_orientation_sd_A2>  (27) 
1.459032062441043

>  <sasa_orientation_range_A2>  (27) 
5.1996936843128765

>  <sasa_first_half_vs_all_abs_delta_A2>  (27) 
0.12262649047835339

>  <mass_weighted_Rg_A>  (27) 
3.6133589180503374

>  <unweighted_Rg_A>  (27) 
4.041866130795999

$$$$
melatonin_20260929_27
     RDKit          3D

 33 34  0  0  0  0  0  0  0  0999 V2000
    5.3520   -0.9450   -0.5369 C   0  0  0  0  0  0  0  0  0  0  0  0
    3.8639   -0.8516   -0.3323 C   0  0  0  0  0  0  0  0  0  0  0  0
    3.0654   -1.2033   -1.1937 O   0  0  0  0  0  0  0  0  0  0  0  0
    3.4938   -0.3245    0.8828 N   0  0  0  0  0  0  0  0  0  0  0  0
    2.0983   -0.1253    1.2335 C   0  0  0  0  0  0  0  0  0  0  0  0
    1.5031    1.1243    0.5790 C   0  0  0  0  0  0  0  0  0  0  0  0
    0.1060    1.3949    1.0407 C   0  0  0  0  0  0  0  0  0  0  0  0
   -0.2817    2.3167    1.9939 C   0  0  0  0  0  0  0  0  0  0  0  0
   -1.6431    2.2538    2.1239 N   0  0  0  0  0  0  0  0  0  0  0  0
   -2.1589    1.3035    1.2749 C   0  0  0  0  0  0  0  0  0  0  0  0
   -1.0860    0.7491    0.5792 C   0  0  0  0  0  0  0  0  0  0  0  0
   -1.3520   -0.2610   -0.3684 C   0  0  0  0  0  0  0  0  0  0  0  0
   -2.6689   -0.6862   -0.5925 C   0  0  0  0  0  0  0  0  0  0  0  0
   -2.7904   -1.6720   -1.5358 O   0  0  0  0  0  0  0  0  0  0  0  0
   -4.1029   -2.1388   -1.8171 C   0  0  0  0  0  0  0  0  0  0  0  0
   -3.7170   -0.1086    0.1232 C   0  0  0  0  0  0  0  0  0  0  0  0
   -3.4816    0.8976    1.0700 C   0  0  0  0  0  0  0  0  0  0  0  0
    5.5958   -1.9306   -0.9429 H   0  0  0  0  0  0  0  0  0  0  0  0
    5.8978   -0.8180    0.4022 H   0  0  0  0  0  0  0  0  0  0  0  0
    5.6658   -0.1682   -1.2390 H   0  0  0  0  0  0  0  0  0  0  0  0
    4.2018    0.0425    1.5044 H   0  0  0  0  0  0  0  0  0  0  0  0
    1.5346   -1.0187    0.9401 H   0  0  0  0  0  0  0  0  0  0  0  0
    2.0541   -0.0483    2.3257 H   0  0  0  0  0  0  0  0  0  0  0  0
    2.1368    1.9916    0.8064 H   0  0  0  0  0  0  0  0  0  0  0  0
    1.5143    1.0225   -0.5131 H   0  0  0  0  0  0  0  0  0  0  0  0
    0.2950    3.0141    2.5869 H   0  0  0  0  0  0  0  0  0  0  0  0
   -2.1960    2.8222    2.7501 H   0  0  0  0  0  0  0  0  0  0  0  0
   -0.5371   -0.7128   -0.9289 H   0  0  0  0  0  0  0  0  0  0  0  0
   -4.7313   -1.3353   -2.2152 H   0  0  0  0  0  0  0  0  0  0  0  0
   -4.0247   -2.9120   -2.5875 H   0  0  0  0  0  0  0  0  0  0  0  0
   -4.5576   -2.5960   -0.9321 H   0  0  0  0  0  0  0  0  0  0  0  0
   -4.7455   -0.4188   -0.0306 H   0  0  0  0  0  0  0  0  0  0  0  0
   -4.3036    1.3423    1.6213 H   0  0  0  0  0  0  0  0  0  0  0  0
  1  2  1  0
  2  3  2  0
  2  4  1  0
  4  5  1  0
  5  6  1  0
  6  7  1  0
  7  8  2  0
  8  9  1  0
  9 10  1  0
 10 11  1  0
 11 12  2  0
 12 13  1  0
 13 14  1  0
 14 15  1  0
 13 16  2  0
 16 17  1  0
 11  7  1  0
 17 10  2  0
  1 18  1  0
  1 19  1  0
  1 20  1  0
  4 21  1  0
  5 22  1  0
  5 23  1  0
  6 24  1  0
  6 25  1  0
  8 26  1  0
  9 27  1  0
 12 28  1  0
 15 29  1  0
 15 30  1  0
 15 31  1  0
 16 32  1  0
 17 33  1  0
M  END
>  <coordinate_phase>  (28) 
MMFF94_after_optimization_status_retained

>  <molecule_id>  (28) 
melatonin

>  <seed>  (28) 
20260929

>  <conformer_id>  (28) 
27

>  <optimization_status>  (28) 
0

>  <energy_kcal_mol>  (28) 
3.758643429399667

>  <sasa_A2>  (28) 
477.2407352350353

>  <sasa_orientation_sd_A2>  (28) 
1.6283480062618336

>  <sasa_orientation_range_A2>  (28) 
7.195209157722957

>  <sasa_first_half_vs_all_abs_delta_A2>  (28) 
0.1374659305202499

>  <mass_weighted_Rg_A>  (28) 
3.4437743278252477

>  <unweighted_Rg_A>  (28) 
3.9439350324335236

$$$$
melatonin_20260929_28
     RDKit          3D

 33 34  0  0  0  0  0  0  0  0999 V2000
   -5.4233   -0.8225    1.6673 C   0  0  0  0  0  0  0  0  0  0  0  0
   -4.3506    0.1534    1.2634 C   0  0  0  0  0  0  0  0  0  0  0  0
   -4.3664    1.3237    1.6284 O   0  0  0  0  0  0  0  0  0  0  0  0
   -3.3671   -0.3943    0.4690 N   0  0  0  0  0  0  0  0  0  0  0  0
   -2.1840    0.3741    0.1153 C   0  0  0  0  0  0  0  0  0  0  0  0
   -1.5182   -0.1627   -1.1515 C   0  0  0  0  0  0  0  0  0  0  0  0
   -0.2629    0.5734   -1.4926 C   0  0  0  0  0  0  0  0  0  0  0  0
   -0.1517    1.6500   -2.3509 C   0  0  0  0  0  0  0  0  0  0  0  0
    1.1602    2.0388   -2.3866 N   0  0  0  0  0  0  0  0  0  0  0  0
    1.9166    1.2345   -1.5673 C   0  0  0  0  0  0  0  0  0  0  0  0
    1.0520    0.3045   -0.9928 C   0  0  0  0  0  0  0  0  0  0  0  0
    1.5892   -0.6448   -0.0990 C   0  0  0  0  0  0  0  0  0  0  0  0
    2.9600   -0.6406    0.1938 C   0  0  0  0  0  0  0  0  0  0  0  0
    3.3499   -1.6141    1.0752 O   0  0  0  0  0  0  0  0  0  0  0  0
    4.7272   -1.6504    1.4262 C   0  0  0  0  0  0  0  0  0  0  0  0
    3.7944    0.3049   -0.4009 C   0  0  0  0  0  0  0  0  0  0  0  0
    3.2879    1.2603   -1.2926 C   0  0  0  0  0  0  0  0  0  0  0  0
   -6.4009   -0.3438    1.5615 H   0  0  0  0  0  0  0  0  0  0  0  0
   -5.4118   -1.7163    1.0372 H   0  0  0  0  0  0  0  0  0  0  0  0
   -5.2667   -1.1162    2.7084 H   0  0  0  0  0  0  0  0  0  0  0  0
   -3.2860   -1.4028    0.4621 H   0  0  0  0  0  0  0  0  0  0  0  0
   -2.4610    1.4272   -0.0135 H   0  0  0  0  0  0  0  0  0  0  0  0
   -1.5002    0.3199    0.9706 H   0  0  0  0  0  0  0  0  0  0  0  0
   -1.2948   -1.2303   -1.0304 H   0  0  0  0  0  0  0  0  0  0  0  0
   -2.2233   -0.0979   -1.9904 H   0  0  0  0  0  0  0  0  0  0  0  0
   -0.8964    2.1740   -2.9356 H   0  0  0  0  0  0  0  0  0  0  0  0
    1.5253    2.8070   -2.9322 H   0  0  0  0  0  0  0  0  0  0  0  0
    0.9443   -1.3832    0.3677 H   0  0  0  0  0  0  0  0  0  0  0  0
    5.3523   -1.8562    0.5510 H   0  0  0  0  0  0  0  0  0  0  0  0
    4.8695   -2.4707    2.1363 H   0  0  0  0  0  0  0  0  0  0  0  0
    5.0331   -0.7237    1.9230 H   0  0  0  0  0  0  0  0  0  0  0  0
    4.8592    0.3315   -0.1930 H   0  0  0  0  0  0  0  0  0  0  0  0
    3.9442    1.9934   -1.7502 H   0  0  0  0  0  0  0  0  0  0  0  0
  1  2  1  0
  2  3  2  0
  2  4  1  0
  4  5  1  0
  5  6  1  0
  6  7  1  0
  7  8  2  0
  8  9  1  0
  9 10  1  0
 10 11  1  0
 11 12  2  0
 12 13  1  0
 13 14  1  0
 14 15  1  0
 13 16  2  0
 16 17  1  0
 11  7  1  0
 17 10  2  0
  1 18  1  0
  1 19  1  0
  1 20  1  0
  4 21  1  0
  5 22  1  0
  5 23  1  0
  6 24  1  0
  6 25  1  0
  8 26  1  0
  9 27  1  0
 12 28  1  0
 15 29  1  0
 15 30  1  0
 15 31  1  0
 16 32  1  0
 17 33  1  0
M  END
>  <coordinate_phase>  (29) 
MMFF94_after_optimization_status_retained

>  <molecule_id>  (29) 
melatonin

>  <seed>  (29) 
20260929

>  <conformer_id>  (29) 
28

>  <optimization_status>  (29) 
0

>  <energy_kcal_mol>  (29) 
4.585563217987924

>  <sasa_A2>  (29) 
486.1750157364058

>  <sasa_orientation_sd_A2>  (29) 
1.9193049815850034

>  <sasa_orientation_range_A2>  (29) 
8.128096133176086

>  <sasa_first_half_vs_all_abs_delta_A2>  (29) 
0.6124750201281586

>  <mass_weighted_Rg_A>  (29) 
3.6321372594666252

>  <unweighted_Rg_A>  (29) 
4.049208616540381

$$$$
melatonin_20260929_29
     RDKit          3D

 33 34  0  0  0  0  0  0  0  0999 V2000
    5.3707    1.8503    0.8349 C   0  0  0  0  0  0  0  0  0  0  0  0
    4.1137    1.4561    0.1064 C   0  0  0  0  0  0  0  0  0  0  0  0
    3.7886    1.9740   -0.9561 O   0  0  0  0  0  0  0  0  0  0  0  0
    3.3908    0.4655    0.7345 N   0  0  0  0  0  0  0  0  0  0  0  0
    2.2242   -0.1175    0.0908 C   0  0  0  0  0  0  0  0  0  0  0  0
    1.3542   -0.8888    1.0830 C   0  0  0  0  0  0  0  0  0  0  0  0
    0.1757   -1.5361    0.4302 C   0  0  0  0  0  0  0  0  0  0  0  0
    0.0961   -2.8433   -0.0097 C   0  0  0  0  0  0  0  0  0  0  0  0
   -1.1469   -3.0411   -0.5485 N   0  0  0  0  0  0  0  0  0  0  0  0
   -1.8888   -1.8864   -0.4691 C   0  0  0  0  0  0  0  0  0  0  0  0
   -1.0861   -0.9238    0.1405 C   0  0  0  0  0  0  0  0  0  0  0  0
   -1.6216    0.3656    0.3388 C   0  0  0  0  0  0  0  0  0  0  0  0
   -2.9301    0.6558   -0.0718 C   0  0  0  0  0  0  0  0  0  0  0  0
   -3.3272    1.9423    0.1809 O   0  0  0  0  0  0  0  0  0  0  0  0
   -4.6296    2.3118   -0.2526 C   0  0  0  0  0  0  0  0  0  0  0  0
   -3.7039   -0.3335   -0.6770 C   0  0  0  0  0  0  0  0  0  0  0  0
   -3.1973   -1.6232   -0.8874 C   0  0  0  0  0  0  0  0  0  0  0  0
    5.4590    2.9403    0.8326 H   0  0  0  0  0  0  0  0  0  0  0  0
    6.2323    1.4088    0.3275 H   0  0  0  0  0  0  0  0  0  0  0  0
    5.3550    1.5121    1.8749 H   0  0  0  0  0  0  0  0  0  0  0  0
    3.8741   -0.0928    1.4259 H   0  0  0  0  0  0  0  0  0  0  0  0
    2.5899   -0.7797   -0.7031 H   0  0  0  0  0  0  0  0  0  0  0  0
    1.6489    0.6816   -0.3915 H   0  0  0  0  0  0  0  0  0  0  0  0
    1.0121   -0.2136    1.8775 H   0  0  0  0  0  0  0  0  0  0  0  0
    1.9601   -1.6560    1.5828 H   0  0  0  0  0  0  0  0  0  0  0  0
    0.8182   -3.6487    0.0137 H   0  0  0  0  0  0  0  0  0  0  0  0
   -1.4777   -3.9077   -0.9490 H   0  0  0  0  0  0  0  0  0  0  0  0
   -1.0222    1.1408    0.8075 H   0  0  0  0  0  0  0  0  0  0  0  0
   -4.7810    3.3648    0.0039 H   0  0  0  0  0  0  0  0  0  0  0  0
   -5.3979    1.7294    0.2666 H   0  0  0  0  0  0  0  0  0  0  0  0
   -4.7269    2.2169   -1.3392 H   0  0  0  0  0  0  0  0  0  0  0  0
   -4.7202   -0.1369   -1.0032 H   0  0  0  0  0  0  0  0  0  0  0  0
   -3.8062   -2.3868   -1.3604 H   0  0  0  0  0  0  0  0  0  0  0  0
  1  2  1  0
  2  3  2  0
  2  4  1  0
  4  5  1  0
  5  6  1  0
  6  7  1  0
  7  8  2  0
  8  9  1  0
  9 10  1  0
 10 11  1  0
 11 12  2  0
 12 13  1  0
 13 14  1  0
 14 15  1  0
 13 16  2  0
 16 17  1  0
 11  7  1  0
 17 10  2  0
  1 18  1  0
  1 19  1  0
  1 20  1  0
  4 21  1  0
  5 22  1  0
  5 23  1  0
  6 24  1  0
  6 25  1  0
  8 26  1  0
  9 27  1  0
 12 28  1  0
 15 29  1  0
 15 30  1  0
 15 31  1  0
 16 32  1  0
 17 33  1  0
M  END
>  <coordinate_phase>  (30) 
MMFF94_after_optimization_status_retained

>  <molecule_id>  (30) 
melatonin

>  <seed>  (30) 
20260929

>  <conformer_id>  (30) 
29

>  <optimization_status>  (30) 
0

>  <energy_kcal_mol>  (30) 
4.97783196131012

>  <sasa_A2>  (30) 
485.5000677369034

>  <sasa_orientation_sd_A2>  (30) 
1.746173320318884

>  <sasa_orientation_range_A2>  (30) 
6.9613370973417545

>  <sasa_first_half_vs_all_abs_delta_A2>  (30) 
0.48365062333994047

>  <mass_weighted_Rg_A>  (30) 
3.5767669081488536

>  <unweighted_Rg_A>  (30) 
4.033513224091456

$$$$
melatonin_20260929_30
     RDKit          3D

 33 34  0  0  0  0  0  0  0  0999 V2000
    2.6678    1.9033    0.5330 C   0  0  0  0  0  0  0  0  0  0  0  0
    2.8844    0.5338   -0.0538 C   0  0  0  0  0  0  0  0  0  0  0  0
    3.4356   -0.3607    0.5795 O   0  0  0  0  0  0  0  0  0  0  0  0
    2.4106    0.3956   -1.3399 N   0  0  0  0  0  0  0  0  0  0  0  0
    2.3502   -0.8997   -1.9968 C   0  0  0  0  0  0  0  0  0  0  0  0
    0.9176   -1.4335   -2.1267 C   0  0  0  0  0  0  0  0  0  0  0  0
    0.2290   -1.6282   -0.8116 C   0  0  0  0  0  0  0  0  0  0  0  0
    0.3578   -2.7186    0.0261 C   0  0  0  0  0  0  0  0  0  0  0  0
   -0.3950   -2.4922    1.1463 N   0  0  0  0  0  0  0  0  0  0  0  0
   -1.0336   -1.2781    1.0535 C   0  0  0  0  0  0  0  0  0  0  0  0
   -0.6672   -0.7144   -0.1671 C   0  0  0  0  0  0  0  0  0  0  0  0
   -1.1906    0.5519   -0.5015 C   0  0  0  0  0  0  0  0  0  0  0  0
   -2.0519    1.2156    0.3827 C   0  0  0  0  0  0  0  0  0  0  0  0
   -2.4798    2.4390   -0.0614 O   0  0  0  0  0  0  0  0  0  0  0  0
   -3.3796    3.1491    0.7802 C   0  0  0  0  0  0  0  0  0  0  0  0
   -2.3951    0.6203    1.5955 C   0  0  0  0  0  0  0  0  0  0  0  0
   -1.8931   -0.6385    1.9529 C   0  0  0  0  0  0  0  0  0  0  0  0
    2.3935    2.6342   -0.2327 H   0  0  0  0  0  0  0  0  0  0  0  0
    3.5932    2.2388    1.0092 H   0  0  0  0  0  0  0  0  0  0  0  0
    1.8679    1.8499    1.2763 H   0  0  0  0  0  0  0  0  0  0  0  0
    1.8740    1.1532   -1.7400 H   0  0  0  0  0  0  0  0  0  0  0  0
    2.7743   -0.7617   -2.9971 H   0  0  0  0  0  0  0  0  0  0  0  0
    2.9794   -1.6210   -1.4640 H   0  0  0  0  0  0  0  0  0  0  0  0
    0.9428   -2.3895   -2.6643 H   0  0  0  0  0  0  0  0  0  0  0  0
    0.3295   -0.7467   -2.7480 H   0  0  0  0  0  0  0  0  0  0  0  0
    0.9435   -3.6234   -0.0680 H   0  0  0  0  0  0  0  0  0  0  0  0
   -0.4623   -3.1173    1.9371 H   0  0  0  0  0  0  0  0  0  0  0  0
   -0.9297    1.0189   -1.4457 H   0  0  0  0  0  0  0  0  0  0  0  0
   -2.9107    3.3981    1.7379 H   0  0  0  0  0  0  0  0  0  0  0  0
   -3.6334    4.0888    0.2803 H   0  0  0  0  0  0  0  0  0  0  0  0
   -4.3091    2.5891    0.9273 H   0  0  0  0  0  0  0  0  0  0  0  0
   -3.0581    1.1109    2.3009 H   0  0  0  0  0  0  0  0  0  0  0  0
   -2.1621   -1.0943    2.9003 H   0  0  0  0  0  0  0  0  0  0  0  0
  1  2  1  0
  2  3  2  0
  2  4  1  0
  4  5  1  0
  5  6  1  0
  6  7  1  0
  7  8  2  0
  8  9  1  0
  9 10  1  0
 10 11  1  0
 11 12  2  0
 12 13  1  0
 13 14  1  0
 14 15  1  0
 13 16  2  0
 16 17  1  0
 11  7  1  0
 17 10  2  0
  1 18  1  0
  1 19  1  0
  1 20  1  0
  4 21  1  0
  5 22  1  0
  5 23  1  0
  6 24  1  0
  6 25  1  0
  8 26  1  0
  9 27  1  0
 12 28  1  0
 15 29  1  0
 15 30  1  0
 15 31  1  0
 16 32  1  0
 17 33  1  0
M  END
>  <coordinate_phase>  (31) 
MMFF94_after_optimization_status_retained

>  <molecule_id>  (31) 
melatonin

>  <seed>  (31) 
20260929

>  <conformer_id>  (31) 
30

>  <optimization_status>  (31) 
0

>  <energy_kcal_mol>  (31) 
4.560009341576639

>  <sasa_A2>  (31) 
452.94512229395406

>  <sasa_orientation_sd_A2>  (31) 
1.4639689109799996

>  <sasa_orientation_range_A2>  (31) 
5.533202106409874

>  <sasa_first_half_vs_all_abs_delta_A2>  (31) 
0.29637952083413666

>  <mass_weighted_Rg_A>  (31) 
2.9646579995734563

>  <unweighted_Rg_A>  (31) 
3.394045994382589

$$$$
melatonin_20260929_31
     RDKit          3D

 33 34  0  0  0  0  0  0  0  0999 V2000
    5.5620    0.8686    1.2081 C   0  0  0  0  0  0  0  0  0  0  0  0
    4.4420   -0.0928    0.9142 C   0  0  0  0  0  0  0  0  0  0  0  0
    4.4814   -1.2659    1.2695 O   0  0  0  0  0  0  0  0  0  0  0  0
    3.3823    0.4660    0.2389 N   0  0  0  0  0  0  0  0  0  0  0  0
    2.1945   -0.3033   -0.0887 C   0  0  0  0  0  0  0  0  0  0  0  0
    1.2527   -0.4620    1.1077 C   0  0  0  0  0  0  0  0  0  0  0  0
   -0.0172   -1.1607    0.7375 C   0  0  0  0  0  0  0  0  0  0  0  0
   -0.2763   -2.5107    0.8721 C   0  0  0  0  0  0  0  0  0  0  0  0
   -1.5440   -2.7537    0.4183 N   0  0  0  0  0  0  0  0  0  0  0  0
   -2.1250   -1.5857   -0.0166 C   0  0  0  0  0  0  0  0  0  0  0  0
   -1.1922   -0.5675    0.1737 C   0  0  0  0  0  0  0  0  0  0  0  0
   -1.5500    0.7451   -0.1971 C   0  0  0  0  0  0  0  0  0  0  0  0
   -2.8152    1.0033   -0.7426 C   0  0  0  0  0  0  0  0  0  0  0  0
   -3.0332    2.3181   -1.0603 O   0  0  0  0  0  0  0  0  0  0  0  0
   -4.3053    2.6462   -1.6039 C   0  0  0  0  0  0  0  0  0  0  0  0
   -3.7220   -0.0409   -0.9187 C   0  0  0  0  0  0  0  0  0  0  0  0
   -3.3938   -1.3550   -0.5583 C   0  0  0  0  0  0  0  0  0  0  0  0
    5.4704    1.7871    0.6219 H   0  0  0  0  0  0  0  0  0  0  0  0
    5.5462    1.1216    2.2714 H   0  0  0  0  0  0  0  0  0  0  0  0
    6.5148    0.3955    0.9548 H   0  0  0  0  0  0  0  0  0  0  0  0
    3.3667    1.4635    0.0726 H   0  0  0  0  0  0  0  0  0  0  0  0
    2.5054   -1.2865   -0.4617 H   0  0  0  0  0  0  0  0  0  0  0  0
    1.6955    0.2216   -0.9109 H   0  0  0  0  0  0  0  0  0  0  0  0
    1.7563   -1.0155    1.9101 H   0  0  0  0  0  0  0  0  0  0  0  0
    1.0175    0.5249    1.5263 H   0  0  0  0  0  0  0  0  0  0  0  0
    0.3377   -3.3167    1.2530 H   0  0  0  0  0  0  0  0  0  0  0  0
   -1.9924   -3.6591    0.4017 H   0  0  0  0  0  0  0  0  0  0  0  0
   -0.8483    1.5621   -0.0602 H   0  0  0  0  0  0  0  0  0  0  0  0
   -4.4689    2.1383   -2.5601 H   0  0  0  0  0  0  0  0  0  0  0  0
   -4.3196    3.7239   -1.7935 H   0  0  0  0  0  0  0  0  0  0  0  0
   -5.1082    2.4229   -0.8936 H   0  0  0  0  0  0  0  0  0  0  0  0
   -4.7081    0.1295   -1.3388 H   0  0  0  0  0  0  0  0  0  0  0  0
   -4.1058   -2.1621   -0.6979 H   0  0  0  0  0  0  0  0  0  0  0  0
  1  2  1  0
  2  3  2  0
  2  4  1  0
  4  5  1  0
  5  6  1  0
  6  7  1  0
  7  8  2  0
  8  9  1  0
  9 10  1  0
 10 11  1  0
 11 12  2  0
 12 13  1  0
 13 14  1  0
 14 15  1  0
 13 16  2  0
 16 17  1  0
 11  7  1  0
 17 10  2  0
  1 18  1  0
  1 19  1  0
  1 20  1  0
  4 21  1  0
  5 22  1  0
  5 23  1  0
  6 24  1  0
  6 25  1  0
  8 26  1  0
  9 27  1  0
 12 28  1  0
 15 29  1  0
 15 30  1  0
 15 31  1  0
 16 32  1  0
 17 33  1  0
M  END
>  <coordinate_phase>  (32) 
MMFF94_after_optimization_status_retained

>  <molecule_id>  (32) 
melatonin

>  <seed>  (32) 
20260929

>  <conformer_id>  (32) 
31

>  <optimization_status>  (32) 
0

>  <energy_kcal_mol>  (32) 
3.1743027457387605

>  <sasa_A2>  (32) 
480.5918393158059

>  <sasa_orientation_sd_A2>  (32) 
2.243405546306834

>  <sasa_orientation_range_A2>  (32) 
8.987360576335675

>  <sasa_first_half_vs_all_abs_delta_A2>  (32) 
1.1671808450301455

>  <mass_weighted_Rg_A>  (32) 
3.6133581349286437

>  <unweighted_Rg_A>  (32) 
4.041865218406624

$$$$
melatonin_20260929_32
     RDKit          3D

 33 34  0  0  0  0  0  0  0  0999 V2000
    5.2926    1.3392    0.3360 C   0  0  0  0  0  0  0  0  0  0  0  0
    4.2317    0.2737    0.4018 C   0  0  0  0  0  0  0  0  0  0  0  0
    4.3866   -0.7600    1.0430 O   0  0  0  0  0  0  0  0  0  0  0  0
    3.0857    0.5745   -0.2968 N   0  0  0  0  0  0  0  0  0  0  0  0
    1.9464   -0.3262   -0.3174 C   0  0  0  0  0  0  0  0  0  0  0  0
    1.1090   -0.2414    0.9615 C   0  0  0  0  0  0  0  0  0  0  0  0
   -0.1152   -1.0985    0.8908 C   0  0  0  0  0  0  0  0  0  0  0  0
   -0.2211   -2.4033    1.3314 C   0  0  0  0  0  0  0  0  0  0  0  0
   -1.4938   -2.8398    1.0851 N   0  0  0  0  0  0  0  0  0  0  0  0
   -2.2298   -1.8445    0.4864 C   0  0  0  0  0  0  0  0  0  0  0  0
   -1.3938   -0.7363    0.3543 C   0  0  0  0  0  0  0  0  0  0  0  0
   -1.9148    0.4379   -0.2364 C   0  0  0  0  0  0  0  0  0  0  0  0
   -3.2452    0.4633   -0.6724 C   0  0  0  0  0  0  0  0  0  0  0  0
   -3.8739    1.5300   -1.2587 O   0  0  0  0  0  0  0  0  0  0  0  0
   -3.1160    2.7241   -1.4013 C   0  0  0  0  0  0  0  0  0  0  0  0
   -4.0476   -0.6688   -0.5241 C   0  0  0  0  0  0  0  0  0  0  0  0
   -3.5601   -1.8435    0.0575 C   0  0  0  0  0  0  0  0  0  0  0  0
    5.3409    1.8554    1.2983 H   0  0  0  0  0  0  0  0  0  0  0  0
    5.0837    2.0702   -0.4499 H   0  0  0  0  0  0  0  0  0  0  0  0
    6.2566    0.8706    0.1191 H   0  0  0  0  0  0  0  0  0  0  0  0
    2.9901    1.4815   -0.7333 H   0  0  0  0  0  0  0  0  0  0  0  0
    1.3460   -0.0568   -1.1936 H   0  0  0  0  0  0  0  0  0  0  0  0
    2.3121   -1.3492   -0.4666 H   0  0  0  0  0  0  0  0  0  0  0  0
    0.8175    0.8007    1.1439 H   0  0  0  0  0  0  0  0  0  0  0  0
    1.7146   -0.5386    1.8269 H   0  0  0  0  0  0  0  0  0  0  0  0
    0.5053   -3.0560    1.7987 H   0  0  0  0  0  0  0  0  0  0  0  0
   -1.8475   -3.7600    1.3075 H   0  0  0  0  0  0  0  0  0  0  0  0
   -1.2641    1.2972   -0.3361 H   0  0  0  0  0  0  0  0  0  0  0  0
   -2.8017    3.1121   -0.4267 H   0  0  0  0  0  0  0  0  0  0  0  0
   -3.7611    3.4760   -1.8659 H   0  0  0  0  0  0  0  0  0  0  0  0
   -2.2567    2.5693   -2.0620 H   0  0  0  0  0  0  0  0  0  0  0  0
   -5.0797   -0.6376   -0.8673 H   0  0  0  0  0  0  0  0  0  0  0  0
   -4.1969   -2.7148    0.1679 H   0  0  0  0  0  0  0  0  0  0  0  0
  1  2  1  0
  2  3  2  0
  2  4  1  0
  4  5  1  0
  5  6  1  0
  6  7  1  0
  7  8  2  0
  8  9  1  0
  9 10  1  0
 10 11  1  0
 11 12  2  0
 12 13  1  0
 13 14  1  0
 14 15  1  0
 13 16  2  0
 16 17  1  0
 11  7  1  0
 17 10  2  0
  1 18  1  0
  1 19  1  0
  1 20  1  0
  4 21  1  0
  5 22  1  0
  5 23  1  0
  6 24  1  0
  6 25  1  0
  8 26  1  0
  9 27  1  0
 12 28  1  0
 15 29  1  0
 15 30  1  0
 15 31  1  0
 16 32  1  0
 17 33  1  0
M  END
>  <coordinate_phase>  (33) 
MMFF94_after_optimization_status_retained

>  <molecule_id>  (33) 
melatonin

>  <seed>  (33) 
20260929

>  <conformer_id>  (33) 
32

>  <optimization_status>  (33) 
0

>  <energy_kcal_mol>  (33) 
3.351635850864355

>  <sasa_A2>  (33) 
481.5277468136492

>  <sasa_orientation_sd_A2>  (33) 
1.5831218836755132

>  <sasa_orientation_range_A2>  (33) 
6.98860212598197

>  <sasa_first_half_vs_all_abs_delta_A2>  (33) 
0.21081304695366043

>  <mass_weighted_Rg_A>  (33) 
3.5374492707408507

>  <unweighted_Rg_A>  (33) 
3.8529435453550547

$$$$
melatonin_20260930_33
     RDKit          3D

 33 34  0  0  0  0  0  0  0  0999 V2000
   -5.2594    1.5754   -0.0699 C   0  0  0  0  0  0  0  0  0  0  0  0
   -3.7859    1.2785   -0.1443 C   0  0  0  0  0  0  0  0  0  0  0  0
   -2.9454    2.0310    0.3359 O   0  0  0  0  0  0  0  0  0  0  0  0
   -3.4803    0.0940   -0.7729 N   0  0  0  0  0  0  0  0  0  0  0  0
   -2.1096   -0.3696   -0.8996 C   0  0  0  0  0  0  0  0  0  0  0  0
   -1.5801   -0.9911    0.3956 C   0  0  0  0  0  0  0  0  0  0  0  0
   -0.2150   -1.5792    0.2250 C   0  0  0  0  0  0  0  0  0  0  0  0
    0.0891   -2.9149    0.0457 C   0  0  0  0  0  0  0  0  0  0  0  0
    1.4481   -3.0347   -0.0682 N   0  0  0  0  0  0  0  0  0  0  0  0
    2.0446   -1.8000    0.0294 C   0  0  0  0  0  0  0  0  0  0  0  0
    1.0271   -0.8663    0.2171 C   0  0  0  0  0  0  0  0  0  0  0  0
    1.3806    0.4924    0.3509 C   0  0  0  0  0  0  0  0  0  0  0  0
    2.7273    0.8778    0.2934 C   0  0  0  0  0  0  0  0  0  0  0  0
    2.9351    2.2242    0.4359 O   0  0  0  0  0  0  0  0  0  0  0  0
    4.2813    2.6778    0.3980 C   0  0  0  0  0  0  0  0  0  0  0  0
    3.7182   -0.0848    0.1037 C   0  0  0  0  0  0  0  0  0  0  0  0
    3.3954   -1.4419   -0.0313 C   0  0  0  0  0  0  0  0  0  0  0  0
   -5.8351    0.9356   -0.7444 H   0  0  0  0  0  0  0  0  0  0  0  0
   -5.4292    2.6163   -0.3589 H   0  0  0  0  0  0  0  0  0  0  0  0
   -5.6051    1.4152    0.9546 H   0  0  0  0  0  0  0  0  0  0  0  0
   -4.2256   -0.5295   -1.0527 H   0  0  0  0  0  0  0  0  0  0  0  0
   -2.0973   -1.1030   -1.7138 H   0  0  0  0  0  0  0  0  0  0  0  0
   -1.4826    0.4764   -1.2047 H   0  0  0  0  0  0  0  0  0  0  0  0
   -1.5578   -0.2404    1.1951 H   0  0  0  0  0  0  0  0  0  0  0  0
   -2.2735   -1.7715    0.7353 H   0  0  0  0  0  0  0  0  0  0  0  0
   -0.5456   -3.7895   -0.0062 H   0  0  0  0  0  0  0  0  0  0  0  0
    1.9478   -3.9025   -0.2028 H   0  0  0  0  0  0  0  0  0  0  0  0
    0.6105    1.2454    0.5000 H   0  0  0  0  0  0  0  0  0  0  0  0
    4.2720    3.7640    0.5302 H   0  0  0  0  0  0  0  0  0  0  0  0
    4.7425    2.4650   -0.5721 H   0  0  0  0  0  0  0  0  0  0  0  0
    4.8665    2.2481    1.2177 H   0  0  0  0  0  0  0  0  0  0  0  0
    4.7680    0.1860    0.0555 H   0  0  0  0  0  0  0  0  0  0  0  0
    4.1732   -2.1842   -0.1772 H   0  0  0  0  0  0  0  0  0  0  0  0
  1  2  1  0
  2  3  2  0
  2  4  1  0
  4  5  1  0
  5  6  1  0
  6  7  1  0
  7  8  2  0
  8  9  1  0
  9 10  1  0
 10 11  1  0
 11 12  2  0
 12 13  1  0
 13 14  1  0
 14 15  1  0
 13 16  2  0
 16 17  1  0
 11  7  1  0
 17 10  2  0
  1 18  1  0
  1 19  1  0
  1 20  1  0
  4 21  1  0
  5 22  1  0
  5 23  1  0
  6 24  1  0
  6 25  1  0
  8 26  1  0
  9 27  1  0
 12 28  1  0
 15 29  1  0
 15 30  1  0
 15 31  1  0
 16 32  1  0
 17 33  1  0
M  END
>  <coordinate_phase>  (34) 
MMFF94_after_optimization_status_retained

>  <molecule_id>  (34) 
melatonin

>  <seed>  (34) 
20260930

>  <conformer_id>  (34) 
33

>  <optimization_status>  (34) 
0

>  <energy_kcal_mol>  (34) 
3.7586434296673934

>  <sasa_A2>  (34) 
477.08564070246456

>  <sasa_orientation_sd_A2>  (34) 
1.65591407438299

>  <sasa_orientation_range_A2>  (34) 
6.067747146084685

>  <sasa_first_half_vs_all_abs_delta_A2>  (34) 
0.3713771790045257

>  <mass_weighted_Rg_A>  (34) 
3.4437739600182677

>  <unweighted_Rg_A>  (34) 
3.943934538957689

$$$$
melatonin_20260930_34
     RDKit          3D

 33 34  0  0  0  0  0  0  0  0999 V2000
    5.2653   -1.4688    0.0961 C   0  0  0  0  0  0  0  0  0  0  0  0
    4.2393   -0.3701    0.0235 C   0  0  0  0  0  0  0  0  0  0  0  0
    4.4785    0.7698    0.4072 O   0  0  0  0  0  0  0  0  0  0  0  0
    3.0244   -0.7651   -0.4861 N   0  0  0  0  0  0  0  0  0  0  0  0
    1.9084    0.1576   -0.5997 C   0  0  0  0  0  0  0  0  0  0  0  0
    1.1980    0.3855    0.7373 C   0  0  0  0  0  0  0  0  0  0  0  0
   -0.0083    1.2585    0.5923 C   0  0  0  0  0  0  0  0  0  0  0  0
   -0.0423    2.6308    0.7454 C   0  0  0  0  0  0  0  0  0  0  0  0
   -1.3231    3.0577    0.5259 N   0  0  0  0  0  0  0  0  0  0  0  0
   -2.1354    1.9892    0.2277 C   0  0  0  0  0  0  0  0  0  0  0  0
   -1.3407    0.8439    0.2655 C   0  0  0  0  0  0  0  0  0  0  0  0
   -1.9422   -0.4066   -0.0055 C   0  0  0  0  0  0  0  0  0  0  0  0
   -3.3090   -0.4686   -0.3033 C   0  0  0  0  0  0  0  0  0  0  0  0
   -4.0150   -1.6088   -0.5837 O   0  0  0  0  0  0  0  0  0  0  0  0
   -3.3008   -2.8367   -0.5303 C   0  0  0  0  0  0  0  0  0  0  0  0
   -4.0683    0.7019   -0.3336 C   0  0  0  0  0  0  0  0  0  0  0  0
   -3.5010    1.9525   -0.0687 C   0  0  0  0  0  0  0  0  0  0  0  0
    4.9648   -2.3422   -0.4893 H   0  0  0  0  0  0  0  0  0  0  0  0
    5.3958   -1.7676    1.1394 H   0  0  0  0  0  0  0  0  0  0  0  0
    6.2135   -1.0992   -0.3040 H   0  0  0  0  0  0  0  0  0  0  0  0
    2.8670   -1.7399   -0.7039 H   0  0  0  0  0  0  0  0  0  0  0  0
    1.2198   -0.2681   -1.3381 H   0  0  0  0  0  0  0  0  0  0  0  0
    2.2801    1.1081   -1.0008 H   0  0  0  0  0  0  0  0  0  0  0  0
    0.9030   -0.5797    1.1681 H   0  0  0  0  0  0  0  0  0  0  0  0
    1.8913    0.8358    1.4587 H   0  0  0  0  0  0  0  0  0  0  0  0
    0.7402    3.3372    0.9916 H   0  0  0  0  0  0  0  0  0  0  0  0
   -1.6333    4.0183    0.5733 H   0  0  0  0  0  0  0  0  0  0  0  0
   -1.3233   -1.2940    0.0263 H   0  0  0  0  0  0  0  0  0  0  0  0
   -4.0044   -3.6428   -0.7596 H   0  0  0  0  0  0  0  0  0  0  0  0
   -2.9016   -3.0190    0.4729 H   0  0  0  0  0  0  0  0  0  0  0  0
   -2.5068   -2.8641   -1.2838 H   0  0  0  0  0  0  0  0  0  0  0  0
   -5.1293    0.6415   -0.5671 H   0  0  0  0  0  0  0  0  0  0  0  0
   -4.1047    2.8533   -0.0939 H   0  0  0  0  0  0  0  0  0  0  0  0
  1  2  1  0
  2  3  2  0
  2  4  1  0
  4  5  1  0
  5  6  1  0
  6  7  1  0
  7  8  2  0
  8  9  1  0
  9 10  1  0
 10 11  1  0
 11 12  2  0
 12 13  1  0
 13 14  1  0
 14 15  1  0
 13 16  2  0
 16 17  1  0
 11  7  1  0
 17 10  2  0
  1 18  1  0
  1 19  1  0
  1 20  1  0
  4 21  1  0
  5 22  1  0
  5 23  1  0
  6 24  1  0
  6 25  1  0
  8 26  1  0
  9 27  1  0
 12 28  1  0
 15 29  1  0
 15 30  1  0
 15 31  1  0
 16 32  1  0
 17 33  1  0
M  END
>  <coordinate_phase>  (35) 
MMFF94_after_optimization_status_retained

>  <molecule_id>  (35) 
melatonin

>  <seed>  (35) 
20260930

>  <conformer_id>  (35) 
34

>  <optimization_status>  (35) 
0

>  <energy_kcal_mol>  (35) 
3.3516358493377503

>  <sasa_A2>  (35) 
480.4902117065238

>  <sasa_orientation_sd_A2>  (35) 
2.338576538596152

>  <sasa_orientation_range_A2>  (35) 
12.44028695625417

>  <sasa_first_half_vs_all_abs_delta_A2>  (35) 
0.2756468800995435

>  <mass_weighted_Rg_A>  (35) 
3.537447030393715

>  <unweighted_Rg_A>  (35) 
3.852941200299782

$$$$
melatonin_20260930_35
     RDKit          3D

 33 34  0  0  0  0  0  0  0  0999 V2000
   -5.5776    1.2701   -0.8624 C   0  0  0  0  0  0  0  0  0  0  0  0
   -4.5339    0.2637   -0.4569 C   0  0  0  0  0  0  0  0  0  0  0  0
   -4.7283   -0.9438   -0.5424 O   0  0  0  0  0  0  0  0  0  0  0  0
   -3.3620    0.8266   -0.0008 N   0  0  0  0  0  0  0  0  0  0  0  0
   -2.2033   -0.0029    0.2898 C   0  0  0  0  0  0  0  0  0  0  0  0
   -1.2430    0.6859    1.2594 C   0  0  0  0  0  0  0  0  0  0  0  0
   -0.0136   -0.1241    1.5173 C   0  0  0  0  0  0  0  0  0  0  0  0
    0.1795   -1.0114    2.5582 C   0  0  0  0  0  0  0  0  0  0  0  0
    1.4305   -1.5531    2.4361 N   0  0  0  0  0  0  0  0  0  0  0  0
    2.0667   -1.0355    1.3326 C   0  0  0  0  0  0  0  0  0  0  0  0
    1.1861   -0.1351    0.7355 C   0  0  0  0  0  0  0  0  0  0  0  0
    1.6060    0.5369   -0.4309 C   0  0  0  0  0  0  0  0  0  0  0  0
    2.8796    0.2950   -0.9641 C   0  0  0  0  0  0  0  0  0  0  0  0
    3.1607    1.0122   -2.0970 O   0  0  0  0  0  0  0  0  0  0  0  0
    4.4320    0.7971   -2.6961 C   0  0  0  0  0  0  0  0  0  0  0  0
    3.7335   -0.6124   -0.3387 C   0  0  0  0  0  0  0  0  0  0  0  0
    3.3427   -1.2948    0.8214 C   0  0  0  0  0  0  0  0  0  0  0  0
   -6.5496    0.9542   -0.4734 H   0  0  0  0  0  0  0  0  0  0  0  0
   -5.6167    1.3256   -1.9533 H   0  0  0  0  0  0  0  0  0  0  0  0
   -5.3562    2.2629   -0.4607 H   0  0  0  0  0  0  0  0  0  0  0  0
   -3.1932    1.7966   -0.2341 H   0  0  0  0  0  0  0  0  0  0  0  0
   -2.5385   -0.9632    0.6992 H   0  0  0  0  0  0  0  0  0  0  0  0
   -1.7112   -0.2112   -0.6675 H   0  0  0  0  0  0  0  0  0  0  0  0
   -0.9570    1.6689    0.8641 H   0  0  0  0  0  0  0  0  0  0  0  0
   -1.7602    0.8836    2.2072 H   0  0  0  0  0  0  0  0  0  0  0  0
   -0.4697   -1.3055    3.3726 H   0  0  0  0  0  0  0  0  0  0  0  0
    1.8328   -2.2369    3.0619 H   0  0  0  0  0  0  0  0  0  0  0  0
    0.9452    1.2442   -0.9228 H   0  0  0  0  0  0  0  0  0  0  0  0
    4.5448   -0.2423   -3.0216 H   0  0  0  0  0  0  0  0  0  0  0  0
    5.2417    1.0911   -2.0200 H   0  0  0  0  0  0  0  0  0  0  0  0
    4.4942    1.4323   -3.5850 H   0  0  0  0  0  0  0  0  0  0  0  0
    4.7249   -0.8191   -0.7290 H   0  0  0  0  0  0  0  0  0  0  0  0
    4.0132   -2.0003    1.3014 H   0  0  0  0  0  0  0  0  0  0  0  0
  1  2  1  0
  2  3  2  0
  2  4  1  0
  4  5  1  0
  5  6  1  0
  6  7  1  0
  7  8  2  0
  8  9  1  0
  9 10  1  0
 10 11  1  0
 11 12  2  0
 12 13  1  0
 13 14  1  0
 14 15  1  0
 13 16  2  0
 16 17  1  0
 11  7  1  0
 17 10  2  0
  1 18  1  0
  1 19  1  0
  1 20  1  0
  4 21  1  0
  5 22  1  0
  5 23  1  0
  6 24  1  0
  6 25  1  0
  8 26  1  0
  9 27  1  0
 12 28  1  0
 15 29  1  0
 15 30  1  0
 15 31  1  0
 16 32  1  0
 17 33  1  0
M  END
>  <coordinate_phase>  (36) 
MMFF94_after_optimization_status_retained

>  <molecule_id>  (36) 
melatonin

>  <seed>  (36) 
20260930

>  <conformer_id>  (36) 
35

>  <optimization_status>  (36) 
0

>  <energy_kcal_mol>  (36) 
4.585563217966311

>  <sasa_A2>  (36) 
486.15889172865553

>  <sasa_orientation_sd_A2>  (36) 
1.8143357383731997

>  <sasa_orientation_range_A2>  (36) 
8.125613219473621

>  <sasa_first_half_vs_all_abs_delta_A2>  (36) 
0.02682105118594791

>  <mass_weighted_Rg_A>  (36) 
3.6321379081149425

>  <unweighted_Rg_A>  (36) 
4.0492097666242355

$$$$
melatonin_20260930_36
     RDKit          3D

 33 34  0  0  0  0  0  0  0  0999 V2000
    4.2311    2.6105   -0.3321 C   0  0  0  0  0  0  0  0  0  0  0  0
    3.0249    1.7608   -0.0362 C   0  0  0  0  0  0  0  0  0  0  0  0
    2.0272    2.2145    0.5152 O   0  0  0  0  0  0  0  0  0  0  0  0
    3.1383    0.4542   -0.4531 N   0  0  0  0  0  0  0  0  0  0  0  0
    2.0484   -0.4895   -0.2809 C   0  0  0  0  0  0  0  0  0  0  0  0
    0.9652   -0.3296   -1.3514 C   0  0  0  0  0  0  0  0  0  0  0  0
   -0.2098   -1.2209   -1.1051 C   0  0  0  0  0  0  0  0  0  0  0  0
   -0.4997   -2.4104   -1.7438 C   0  0  0  0  0  0  0  0  0  0  0  0
   -1.6662   -2.9038   -1.2219 N   0  0  0  0  0  0  0  0  0  0  0  0
   -2.1468   -2.0610   -0.2475 C   0  0  0  0  0  0  0  0  0  0  0  0
   -1.2560   -0.9938   -0.1532 C   0  0  0  0  0  0  0  0  0  0  0  0
   -1.5176    0.0310    0.7844 C   0  0  0  0  0  0  0  0  0  0  0  0
   -2.6556   -0.0469    1.5948 C   0  0  0  0  0  0  0  0  0  0  0  0
   -3.0235    0.8721    2.5424 O   0  0  0  0  0  0  0  0  0  0  0  0
   -2.1565    1.9866    2.7202 C   0  0  0  0  0  0  0  0  0  0  0  0
   -3.5252   -1.1318    1.4693 C   0  0  0  0  0  0  0  0  0  0  0  0
   -3.2917   -2.1596    0.5485 C   0  0  0  0  0  0  0  0  0  0  0  0
    4.4919    3.1844    0.5614 H   0  0  0  0  0  0  0  0  0  0  0  0
    5.0956    2.0019   -0.6117 H   0  0  0  0  0  0  0  0  0  0  0  0
    3.9953    3.2921   -1.1535 H   0  0  0  0  0  0  0  0  0  0  0  0
    3.9438    0.1682   -0.9939 H   0  0  0  0  0  0  0  0  0  0  0  0
    2.4814   -1.4953   -0.3205 H   0  0  0  0  0  0  0  0  0  0  0  0
    1.6293   -0.3495    0.7223 H   0  0  0  0  0  0  0  0  0  0  0  0
    1.3952   -0.5427   -2.3385 H   0  0  0  0  0  0  0  0  0  0  0  0
    0.6215    0.7115   -1.3933 H   0  0  0  0  0  0  0  0  0  0  0  0
    0.0207   -2.9455   -2.5269 H   0  0  0  0  0  0  0  0  0  0  0  0
   -2.1161   -3.7624   -1.5073 H   0  0  0  0  0  0  0  0  0  0  0  0
   -0.8195    0.8582    0.8515 H   0  0  0  0  0  0  0  0  0  0  0  0
   -2.5797    2.6153    3.5095 H   0  0  0  0  0  0  0  0  0  0  0  0
   -1.1621    1.6659    3.0483 H   0  0  0  0  0  0  0  0  0  0  0  0
   -2.0988    2.5912    1.8090 H   0  0  0  0  0  0  0  0  0  0  0  0
   -4.4075   -1.1801    2.1041 H   0  0  0  0  0  0  0  0  0  0  0  0
   -3.9776   -2.9955    0.4636 H   0  0  0  0  0  0  0  0  0  0  0  0
  1  2  1  0
  2  3  2  0
  2  4  1  0
  4  5  1  0
  5  6  1  0
  6  7  1  0
  7  8  2  0
  8  9  1  0
  9 10  1  0
 10 11  1  0
 11 12  2  0
 12 13  1  0
 13 14  1  0
 14 15  1  0
 13 16  2  0
 16 17  1  0
 11  7  1  0
 17 10  2  0
  1 18  1  0
  1 19  1  0
  1 20  1  0
  4 21  1  0
  5 22  1  0
  5 23  1  0
  6 24  1  0
  6 25  1  0
  8 26  1  0
  9 27  1  0
 12 28  1  0
 15 29  1  0
 15 30  1  0
 15 31  1  0
 16 32  1  0
 17 33  1  0
M  END
>  <coordinate_phase>  (37) 
MMFF94_after_optimization_status_retained

>  <molecule_id>  (37) 
melatonin

>  <seed>  (37) 
20260930

>  <conformer_id>  (37) 
36

>  <optimization_status>  (37) 
0

>  <energy_kcal_mol>  (37) 
2.0868556560982654

>  <sasa_A2>  (37) 
466.61856556454126

>  <sasa_orientation_sd_A2>  (37) 
1.6244727666552026

>  <sasa_orientation_range_A2>  (37) 
8.053601913430043

>  <sasa_first_half_vs_all_abs_delta_A2>  (37) 
0.09076910708802188

>  <mass_weighted_Rg_A>  (37) 
3.282501776276997

>  <unweighted_Rg_A>  (37) 
3.6750419825154577

$$$$
melatonin_20260930_37
     RDKit          3D

 33 34  0  0  0  0  0  0  0  0999 V2000
   -5.6936    0.6717    0.6322 C   0  0  0  0  0  0  0  0  0  0  0  0
   -4.5204   -0.1709    0.2094 C   0  0  0  0  0  0  0  0  0  0  0  0
   -4.6027   -1.3888    0.0921 O   0  0  0  0  0  0  0  0  0  0  0  0
   -3.3646    0.5416   -0.0092 N   0  0  0  0  0  0  0  0  0  0  0  0
   -2.1222   -0.1137   -0.3794 C   0  0  0  0  0  0  0  0  0  0  0  0
   -1.4160   -0.7485    0.8213 C   0  0  0  0  0  0  0  0  0  0  0  0
   -0.0864   -1.3268    0.4531 C   0  0  0  0  0  0  0  0  0  0  0  0
    0.1689   -2.6434    0.1227 C   0  0  0  0  0  0  0  0  0  0  0  0
    1.5032   -2.7677   -0.1535 N   0  0  0  0  0  0  0  0  0  0  0  0
    2.1325   -1.5531   -0.0134 C   0  0  0  0  0  0  0  0  0  0  0  0
    1.1614   -0.6293    0.3695 C   0  0  0  0  0  0  0  0  0  0  0  0
    1.5567    0.7076    0.5815 C   0  0  0  0  0  0  0  0  0  0  0  0
    2.8960    1.0827    0.4068 C   0  0  0  0  0  0  0  0  0  0  0  0
    3.1441    2.4092    0.6429 O   0  0  0  0  0  0  0  0  0  0  0  0
    4.4885    2.8482    0.4971 C   0  0  0  0  0  0  0  0  0  0  0  0
    3.8395    0.1308    0.0226 C   0  0  0  0  0  0  0  0  0  0  0  0
    3.4752   -1.2051   -0.1941 C   0  0  0  0  0  0  0  0  0  0  0  0
   -5.5123    1.7353    0.4541 H   0  0  0  0  0  0  0  0  0  0  0  0
   -6.5736    0.3742    0.0553 H   0  0  0  0  0  0  0  0  0  0  0  0
   -5.8802    0.5157    1.6978 H   0  0  0  0  0  0  0  0  0  0  0  0
   -3.3374    1.5283    0.2111 H   0  0  0  0  0  0  0  0  0  0  0  0
   -1.4893    0.6499   -0.8451 H   0  0  0  0  0  0  0  0  0  0  0  0
   -2.3396   -0.8740   -1.1391 H   0  0  0  0  0  0  0  0  0  0  0  0
   -2.0492   -1.5313    1.2575 H   0  0  0  0  0  0  0  0  0  0  0  0
   -1.2815    0.0024    1.6103 H   0  0  0  0  0  0  0  0  0  0  0  0
   -0.4897   -3.5003    0.0614 H   0  0  0  0  0  0  0  0  0  0  0  0
    1.9640   -3.6255   -0.4232 H   0  0  0  0  0  0  0  0  0  0  0  0
    0.8263    1.4522    0.8828 H   0  0  0  0  0  0  0  0  0  0  0  0
    5.1497    2.3389    1.2059 H   0  0  0  0  0  0  0  0  0  0  0  0
    4.5173    3.9180    0.7257 H   0  0  0  0  0  0  0  0  0  0  0  0
    4.8364    2.7190   -0.5331 H   0  0  0  0  0  0  0  0  0  0  0  0
    4.8830    0.3927   -0.1204 H   0  0  0  0  0  0  0  0  0  0  0  0
    4.2159   -1.9400   -0.4923 H   0  0  0  0  0  0  0  0  0  0  0  0
  1  2  1  0
  2  3  2  0
  2  4  1  0
  4  5  1  0
  5  6  1  0
  6  7  1  0
  7  8  2  0
  8  9  1  0
  9 10  1  0
 10 11  1  0
 11 12  2  0
 12 13  1  0
 13 14  1  0
 14 15  1  0
 13 16  2  0
 16 17  1  0
 11  7  1  0
 17 10  2  0
  1 18  1  0
  1 19  1  0
  1 20  1  0
  4 21  1  0
  5 22  1  0
  5 23  1  0
  6 24  1  0
  6 25  1  0
  8 26  1  0
  9 27  1  0
 12 28  1  0
 15 29  1  0
 15 30  1  0
 15 31  1  0
 16 32  1  0
 17 33  1  0
M  END
>  <coordinate_phase>  (38) 
MMFF94_after_optimization_status_retained

>  <molecule_id>  (38) 
melatonin

>  <seed>  (38) 
20260930

>  <conformer_id>  (38) 
37

>  <optimization_status>  (38) 
0

>  <energy_kcal_mol>  (38) 
3.174302745032735

>  <sasa_A2>  (38) 
480.690912022658

>  <sasa_orientation_sd_A2>  (38) 
2.319751406294885

>  <sasa_orientation_range_A2>  (38) 
10.746376373182727

>  <sasa_first_half_vs_all_abs_delta_A2>  (38) 
0.18420114516629837

>  <mass_weighted_Rg_A>  (38) 
3.6133586729152873

>  <unweighted_Rg_A>  (38) 
4.041865887174315

$$$$
melatonin_20260930_38
     RDKit          3D

 33 34  0  0  0  0  0  0  0  0999 V2000
   -5.0883    1.8939   -0.8694 C   0  0  0  0  0  0  0  0  0  0  0  0
   -3.6592    1.5236   -0.5769 C   0  0  0  0  0  0  0  0  0  0  0  0
   -2.7158    2.1058   -1.1009 O   0  0  0  0  0  0  0  0  0  0  0  0
   -3.5168    0.4758    0.3024 N   0  0  0  0  0  0  0  0  0  0  0  0
   -2.2089   -0.0400    0.6674 C   0  0  0  0  0  0  0  0  0  0  0  0
   -1.6148   -0.9465   -0.4139 C   0  0  0  0  0  0  0  0  0  0  0  0
   -0.3272   -1.5745    0.0177 C   0  0  0  0  0  0  0  0  0  0  0  0
   -0.1568   -2.8620    0.4889 C   0  0  0  0  0  0  0  0  0  0  0  0
    1.1701   -3.0438    0.7725 N   0  0  0  0  0  0  0  0  0  0  0  0
    1.8766   -1.8965    0.4995 C   0  0  0  0  0  0  0  0  0  0  0  0
    0.9650   -0.9571    0.0211 C   0  0  0  0  0  0  0  0  0  0  0  0
    1.4446    0.3195   -0.3382 C   0  0  0  0  0  0  0  0  0  0  0  0
    2.8079    0.6204   -0.2106 C   0  0  0  0  0  0  0  0  0  0  0  0
    3.1427    1.8927   -0.5918 O   0  0  0  0  0  0  0  0  0  0  0  0
    4.5132    2.2562   -0.4967 C   0  0  0  0  0  0  0  0  0  0  0  0
    3.6905   -0.3451    0.2725 C   0  0  0  0  0  0  0  0  0  0  0  0
    3.2413   -1.6220    0.6361 C   0  0  0  0  0  0  0  0  0  0  0  0
   -5.3483    1.5501   -1.8738 H   0  0  0  0  0  0  0  0  0  0  0  0
   -5.1949    2.9807   -0.8115 H   0  0  0  0  0  0  0  0  0  0  0  0
   -5.7777    1.4445   -0.1493 H   0  0  0  0  0  0  0  0  0  0  0  0
   -4.3358   -0.0275    0.6161 H   0  0  0  0  0  0  0  0  0  0  0  0
   -1.5434    0.8081    0.8667 H   0  0  0  0  0  0  0  0  0  0  0  0
   -2.3363   -0.5903    1.6065 H   0  0  0  0  0  0  0  0  0  0  0  0
   -1.4530   -0.3786   -1.3383 H   0  0  0  0  0  0  0  0  0  0  0  0
   -2.3374   -1.7333   -0.6671 H   0  0  0  0  0  0  0  0  0  0  0  0
   -0.8662   -3.6643    0.6423 H   0  0  0  0  0  0  0  0  0  0  0  0
    1.5787   -3.8962    1.1294 H   0  0  0  0  0  0  0  0  0  0  0  0
    0.7593    1.0743   -0.7163 H   0  0  0  0  0  0  0  0  0  0  0  0
    5.1341    1.6306   -1.1466 H   0  0  0  0  0  0  0  0  0  0  0  0
    4.8610    2.2172    0.5408 H   0  0  0  0  0  0  0  0  0  0  0  0
    4.6095    3.2905   -0.8407 H   0  0  0  0  0  0  0  0  0  0  0  0
    4.7503   -0.1388    0.3813 H   0  0  0  0  0  0  0  0  0  0  0  0
    3.9356   -2.3675    1.0098 H   0  0  0  0  0  0  0  0  0  0  0  0
  1  2  1  0
  2  3  2  0
  2  4  1  0
  4  5  1  0
  5  6  1  0
  6  7  1  0
  7  8  2  0
  8  9  1  0
  9 10  1  0
 10 11  1  0
 11 12  2  0
 12 13  1  0
 13 14  1  0
 14 15  1  0
 13 16  2  0
 16 17  1  0
 11  7  1  0
 17 10  2  0
  1 18  1  0
  1 19  1  0
  1 20  1  0
  4 21  1  0
  5 22  1  0
  5 23  1  0
  6 24  1  0
  6 25  1  0
  8 26  1  0
  9 27  1  0
 12 28  1  0
 15 29  1  0
 15 30  1  0
 15 31  1  0
 16 32  1  0
 17 33  1  0
M  END
>  <coordinate_phase>  (39) 
MMFF94_after_optimization_status_retained

>  <molecule_id>  (39) 
melatonin

>  <seed>  (39) 
20260930

>  <conformer_id>  (39) 
38

>  <optimization_status>  (39) 
0

>  <energy_kcal_mol>  (39) 
3.7586434301235556

>  <sasa_A2>  (39) 
477.35672965034433

>  <sasa_orientation_sd_A2>  (39) 
1.8167505553503789

>  <sasa_orientation_range_A2>  (39) 
7.440369274423233

>  <sasa_first_half_vs_all_abs_delta_A2>  (39) 
0.1254947240323645

>  <mass_weighted_Rg_A>  (39) 
3.4437751713925704

>  <unweighted_Rg_A>  (39) 
3.9439354498735706

$$$$
melatonin_20260930_39
     RDKit          3D

 33 34  0  0  0  0  0  0  0  0999 V2000
    5.5857    1.3335    0.1442 C   0  0  0  0  0  0  0  0  0  0  0  0
    4.4840    0.4567   -0.3872 C   0  0  0  0  0  0  0  0  0  0  0  0
    4.6962   -0.6812   -0.7921 O   0  0  0  0  0  0  0  0  0  0  0  0
    3.2376    1.0371   -0.3568 N   0  0  0  0  0  0  0  0  0  0  0  0
    2.0506    0.3199   -0.7888 C   0  0  0  0  0  0  0  0  0  0  0  0
    1.5398   -0.6576    0.2728 C   0  0  0  0  0  0  0  0  0  0  0  0
    0.2579   -1.3128   -0.1335 C   0  0  0  0  0  0  0  0  0  0  0  0
    0.1275   -2.5438   -0.7463 C   0  0  0  0  0  0  0  0  0  0  0  0
   -1.2033   -2.7821   -0.9565 N   0  0  0  0  0  0  0  0  0  0  0  0
   -1.9536   -1.7264   -0.4947 C   0  0  0  0  0  0  0  0  0  0  0  0
   -1.0650   -0.7896    0.0303 C   0  0  0  0  0  0  0  0  0  0  0  0
   -1.5915    0.3996    0.5754 C   0  0  0  0  0  0  0  0  0  0  0  0
   -2.9758    0.6198    0.5811 C   0  0  0  0  0  0  0  0  0  0  0  0
   -3.3533    1.8135    1.1375 O   0  0  0  0  0  0  0  0  0  0  0  0
   -4.7475    2.0882    1.1866 C   0  0  0  0  0  0  0  0  0  0  0  0
   -3.8341   -0.3401    0.0465 C   0  0  0  0  0  0  0  0  0  0  0  0
   -3.3388   -1.5315   -0.5009 C   0  0  0  0  0  0  0  0  0  0  0  0
    5.8892    0.9690    1.1290 H   0  0  0  0  0  0  0  0  0  0  0  0
    6.4359    1.2948   -0.5424 H   0  0  0  0  0  0  0  0  0  0  0  0
    5.2658    2.3754    0.2330 H   0  0  0  0  0  0  0  0  0  0  0  0
    3.1167    1.9363    0.0902 H   0  0  0  0  0  0  0  0  0  0  0  0
    2.2824   -0.2140   -1.7182 H   0  0  0  0  0  0  0  0  0  0  0  0
    1.2919    1.0758   -1.0201 H   0  0  0  0  0  0  0  0  0  0  0  0
    1.3940   -0.1282    1.2230 H   0  0  0  0  0  0  0  0  0  0  0  0
    2.2983   -1.4254    0.4709 H   0  0  0  0  0  0  0  0  0  0  0  0
    0.8727   -3.2680   -1.0497 H   0  0  0  0  0  0  0  0  0  0  0  0
   -1.5844   -3.6117   -1.3894 H   0  0  0  0  0  0  0  0  0  0  0  0
   -0.9276    1.1494    0.9948 H   0  0  0  0  0  0  0  0  0  0  0  0
   -4.8789    3.0654    1.6613 H   0  0  0  0  0  0  0  0  0  0  0  0
   -5.1738    2.1476    0.1798 H   0  0  0  0  0  0  0  0  0  0  0  0
   -5.2749    1.3481    1.7976 H   0  0  0  0  0  0  0  0  0  0  0  0
   -4.9098   -0.1963    0.0371 H   0  0  0  0  0  0  0  0  0  0  0  0
   -4.0137   -2.2739   -0.9144 H   0  0  0  0  0  0  0  0  0  0  0  0
  1  2  1  0
  2  3  2  0
  2  4  1  0
  4  5  1  0
  5  6  1  0
  6  7  1  0
  7  8  2  0
  8  9  1  0
  9 10  1  0
 10 11  1  0
 11 12  2  0
 12 13  1  0
 13 14  1  0
 14 15  1  0
 13 16  2  0
 16 17  1  0
 11  7  1  0
 17 10  2  0
  1 18  1  0
  1 19  1  0
  1 20  1  0
  4 21  1  0
  5 22  1  0
  5 23  1  0
  6 24  1  0
  6 25  1  0
  8 26  1  0
  9 27  1  0
 12 28  1  0
 15 29  1  0
 15 30  1  0
 15 31  1  0
 16 32  1  0
 17 33  1  0
M  END
>  <coordinate_phase>  (40) 
MMFF94_after_optimization_status_retained

>  <molecule_id>  (40) 
melatonin

>  <seed>  (40) 
20260930

>  <conformer_id>  (40) 
39

>  <optimization_status>  (40) 
0

>  <energy_kcal_mol>  (40) 
3.174302745445436

>  <sasa_A2>  (40) 
481.0609374105904

>  <sasa_orientation_sd_A2>  (40) 
1.717219560201164

>  <sasa_orientation_range_A2>  (40) 
7.2324738341374655

>  <sasa_first_half_vs_all_abs_delta_A2>  (40) 
0.06401626531487636

>  <mass_weighted_Rg_A>  (40) 
3.613359153889896

>  <unweighted_Rg_A>  (40) 
4.041866368665306

$$$$
melatonin_20260930_40
     RDKit          3D

 33 34  0  0  0  0  0  0  0  0999 V2000
    5.3106    1.6348   -1.5438 C   0  0  0  0  0  0  0  0  0  0  0  0
    4.3432    1.3256   -0.4325 C   0  0  0  0  0  0  0  0  0  0  0  0
    4.4784    1.7899    0.6941 O   0  0  0  0  0  0  0  0  0  0  0  0
    3.3091    0.4956   -0.8066 N   0  0  0  0  0  0  0  0  0  0  0  0
    2.2108    0.2196    0.1060 C   0  0  0  0  0  0  0  0  0  0  0  0
    1.4939   -1.0830   -0.2487 C   0  0  0  0  0  0  0  0  0  0  0  0
    0.3203   -1.3486    0.6380 C   0  0  0  0  0  0  0  0  0  0  0  0
    0.3198   -2.1101    1.7904 C   0  0  0  0  0  0  0  0  0  0  0  0
   -0.9454   -2.1009    2.3124 N   0  0  0  0  0  0  0  0  0  0  0  0
   -1.7802   -1.3474    1.5214 C   0  0  0  0  0  0  0  0  0  0  0  0
   -1.0152   -0.8625    0.4620 C   0  0  0  0  0  0  0  0  0  0  0  0
   -1.6467   -0.0492   -0.5014 C   0  0  0  0  0  0  0  0  0  0  0  0
   -3.0100    0.2547   -0.3831 C   0  0  0  0  0  0  0  0  0  0  0  0
   -3.4975    1.0524   -1.3845 O   0  0  0  0  0  0  0  0  0  0  0  0
   -4.8714    1.4108   -1.3106 C   0  0  0  0  0  0  0  0  0  0  0  0
   -3.7433   -0.2492    0.6902 C   0  0  0  0  0  0  0  0  0  0  0  0
   -3.1418   -1.0597    1.6627 C   0  0  0  0  0  0  0  0  0  0  0  0
    5.1246    2.6481   -1.9089 H   0  0  0  0  0  0  0  0  0  0  0  0
    6.3320    1.5622   -1.1597 H   0  0  0  0  0  0  0  0  0  0  0  0
    5.2080    0.9302   -2.3739 H   0  0  0  0  0  0  0  0  0  0  0  0
    3.1255    0.4026   -1.7972 H   0  0  0  0  0  0  0  0  0  0  0  0
    1.5248    1.0728    0.0478 H   0  0  0  0  0  0  0  0  0  0  0  0
    2.5938    0.1794    1.1325 H   0  0  0  0  0  0  0  0  0  0  0  0
    1.1626   -1.0523   -1.2946 H   0  0  0  0  0  0  0  0  0  0  0  0
    2.2021   -1.9193   -0.1837 H   0  0  0  0  0  0  0  0  0  0  0  0
    1.1144   -2.6540    2.2846 H   0  0  0  0  0  0  0  0  0  0  0  0
   -1.2301   -2.5752    3.1580 H   0  0  0  0  0  0  0  0  0  0  0  0
   -1.0807    0.3466   -1.3392 H   0  0  0  0  0  0  0  0  0  0  0  0
   -5.0811    1.9881   -0.4041 H   0  0  0  0  0  0  0  0  0  0  0  0
   -5.5140    0.5265   -1.3753 H   0  0  0  0  0  0  0  0  0  0  0  0
   -5.0969    2.0489   -2.1705 H   0  0  0  0  0  0  0  0  0  0  0  0
   -4.8000   -0.0306    0.8070 H   0  0  0  0  0  0  0  0  0  0  0  0
   -3.7197   -1.4469    2.4956 H   0  0  0  0  0  0  0  0  0  0  0  0
  1  2  1  0
  2  3  2  0
  2  4  1  0
  4  5  1  0
  5  6  1  0
  6  7  1  0
  7  8  2  0
  8  9  1  0
  9 10  1  0
 10 11  1  0
 11 12  2  0
 12 13  1  0
 13 14  1  0
 14 15  1  0
 13 16  2  0
 16 17  1  0
 11  7  1  0
 17 10  2  0
  1 18  1  0
  1 19  1  0
  1 20  1  0
  4 21  1  0
  5 22  1  0
  5 23  1  0
  6 24  1  0
  6 25  1  0
  8 26  1  0
  9 27  1  0
 12 28  1  0
 15 29  1  0
 15 30  1  0
 15 31  1  0
 16 32  1  0
 17 33  1  0
M  END
>  <coordinate_phase>  (41) 
MMFF94_after_optimization_status_retained

>  <molecule_id>  (41) 
melatonin

>  <seed>  (41) 
20260930

>  <conformer_id>  (41) 
40

>  <optimization_status>  (41) 
0

>  <energy_kcal_mol>  (41) 
4.585563217334898

>  <sasa_A2>  (41) 
485.97765869659383

>  <sasa_orientation_sd_A2>  (41) 
1.4492119316811496

>  <sasa_orientation_range_A2>  (41) 
7.151070253312923

>  <sasa_first_half_vs_all_abs_delta_A2>  (41) 
0.14718717143500726

>  <mass_weighted_Rg_A>  (41) 
3.632137582526169

>  <unweighted_Rg_A>  (41) 
4.0492090139739325

$$$$
melatonin_20260930_41
     RDKit          3D

 33 34  0  0  0  0  0  0  0  0999 V2000
    5.6943    0.7140    0.2682 C   0  0  0  0  0  0  0  0  0  0  0  0
    4.4900   -0.1467    0.5399 C   0  0  0  0  0  0  0  0  0  0  0  0
    4.4889   -1.0067    1.4141 O   0  0  0  0  0  0  0  0  0  0  0  0
    3.4059    0.1327   -0.2587 N   0  0  0  0  0  0  0  0  0  0  0  0
    2.1434   -0.5691   -0.1052 C   0  0  0  0  0  0  0  0  0  0  0  0
    1.3196   -0.0394    1.0714 C   0  0  0  0  0  0  0  0  0  0  0  0
   -0.0240   -0.6911    1.1584 C   0  0  0  0  0  0  0  0  0  0  0  0
   -0.3555   -1.7788    1.9423 C   0  0  0  0  0  0  0  0  0  0  0  0
   -1.6759   -2.0725    1.7362 N   0  0  0  0  0  0  0  0  0  0  0  0
   -2.2207   -1.1974    0.8262 C   0  0  0  0  0  0  0  0  0  0  0  0
   -1.2091   -0.3164    0.4473 C   0  0  0  0  0  0  0  0  0  0  0  0
   -1.5165    0.6919   -0.4893 C   0  0  0  0  0  0  0  0  0  0  0  0
   -2.8110    0.7922   -1.0176 C   0  0  0  0  0  0  0  0  0  0  0  0
   -2.9741    1.8128   -1.9170 O   0  0  0  0  0  0  0  0  0  0  0  0
   -4.2707    1.9759   -2.4769 C   0  0  0  0  0  0  0  0  0  0  0  0
   -3.7971   -0.1075   -0.6152 C   0  0  0  0  0  0  0  0  0  0  0  0
   -3.5203   -1.1189    0.3148 C   0  0  0  0  0  0  0  0  0  0  0  0
    5.6037    1.2475   -0.6821 H   0  0  0  0  0  0  0  0  0  0  0  0
    5.8032    1.4420    1.0763 H   0  0  0  0  0  0  0  0  0  0  0  0
    6.5836    0.0795    0.2200 H   0  0  0  0  0  0  0  0  0  0  0  0
    3.4385    0.9267   -0.8844 H   0  0  0  0  0  0  0  0  0  0  0  0
    1.5986   -0.4484   -1.0482 H   0  0  0  0  0  0  0  0  0  0  0  0
    2.3501   -1.6380    0.0252 H   0  0  0  0  0  0  0  0  0  0  0  0
    1.1931    1.0465    0.9748 H   0  0  0  0  0  0  0  0  0  0  0  0
    1.8651   -0.1950    2.0107 H   0  0  0  0  0  0  0  0  0  0  0  0
    0.2402   -2.3670    2.6286 H   0  0  0  0  0  0  0  0  0  0  0  0
   -2.1816   -2.8237    2.1845 H   0  0  0  0  0  0  0  0  0  0  0  0
   -0.7527    1.3963   -0.8044 H   0  0  0  0  0  0  0  0  0  0  0  0
   -4.2341    2.8287   -3.1617 H   0  0  0  0  0  0  0  0  0  0  0  0
   -5.0102    2.2034   -1.7019 H   0  0  0  0  0  0  0  0  0  0  0  0
   -4.5634    1.0952   -3.0580 H   0  0  0  0  0  0  0  0  0  0  0  0
   -4.8075   -0.0538   -1.0077 H   0  0  0  0  0  0  0  0  0  0  0  0
   -4.2938   -1.8147    0.6233 H   0  0  0  0  0  0  0  0  0  0  0  0
  1  2  1  0
  2  3  2  0
  2  4  1  0
  4  5  1  0
  5  6  1  0
  6  7  1  0
  7  8  2  0
  8  9  1  0
  9 10  1  0
 10 11  1  0
 11 12  2  0
 12 13  1  0
 13 14  1  0
 14 15  1  0
 13 16  2  0
 16 17  1  0
 11  7  1  0
 17 10  2  0
  1 18  1  0
  1 19  1  0
  1 20  1  0
  4 21  1  0
  5 22  1  0
  5 23  1  0
  6 24  1  0
  6 25  1  0
  8 26  1  0
  9 27  1  0
 12 28  1  0
 15 29  1  0
 15 30  1  0
 15 31  1  0
 16 32  1  0
 17 33  1  0
M  END
>  <coordinate_phase>  (42) 
MMFF94_after_optimization_status_retained

>  <molecule_id>  (42) 
melatonin

>  <seed>  (42) 
20260930

>  <conformer_id>  (42) 
41

>  <optimization_status>  (42) 
0

>  <energy_kcal_mol>  (42) 
3.174302746407376

>  <sasa_A2>  (42) 
481.33312831208997

>  <sasa_orientation_sd_A2>  (42) 
1.5274364147839303

>  <sasa_orientation_range_A2>  (42) 
6.047488965237392

>  <sasa_first_half_vs_all_abs_delta_A2>  (42) 
0.20188401354920416

>  <mass_weighted_Rg_A>  (42) 
3.613358391841232

>  <unweighted_Rg_A>  (42) 
4.041865913748202

$$$$
melatonin_20260930_42
     RDKit          3D

 33 34  0  0  0  0  0  0  0  0999 V2000
    5.1892    1.6330    0.9380 C   0  0  0  0  0  0  0  0  0  0  0  0
    3.7408    1.3333    0.6605 C   0  0  0  0  0  0  0  0  0  0  0  0
    2.8332    1.9874    1.1623 O   0  0  0  0  0  0  0  0  0  0  0  0
    3.5372    0.2623   -0.1779 N   0  0  0  0  0  0  0  0  0  0  0  0
    2.2012   -0.1922   -0.5224 C   0  0  0  0  0  0  0  0  0  0  0  0
    1.5596   -1.0218    0.5931 C   0  0  0  0  0  0  0  0  0  0  0  0
    0.2376   -1.5919    0.1864 C   0  0  0  0  0  0  0  0  0  0  0  0
   -0.0065   -2.8848   -0.2351 C   0  0  0  0  0  0  0  0  0  0  0  0
   -1.3423   -3.0020   -0.5109 N   0  0  0  0  0  0  0  0  0  0  0  0
   -1.9822   -1.8070   -0.2817 C   0  0  0  0  0  0  0  0  0  0  0  0
   -1.0177   -0.9031    0.1599 C   0  0  0  0  0  0  0  0  0  0  0  0
   -1.4235    0.4114    0.4704 C   0  0  0  0  0  0  0  0  0  0  0  0
   -2.7679    0.7839    0.3318 C   0  0  0  0  0  0  0  0  0  0  0  0
   -3.0293    2.0867    0.6643 O   0  0  0  0  0  0  0  0  0  0  0  0
   -4.3774    2.5232    0.5559 C   0  0  0  0  0  0  0  0  0  0  0  0
   -3.7049   -0.1479   -0.1135 C   0  0  0  0  0  0  0  0  0  0  0  0
   -3.3295   -1.4611   -0.4282 C   0  0  0  0  0  0  0  0  0  0  0  0
    5.8503    1.1181    0.2354 H   0  0  0  0  0  0  0  0  0  0  0  0
    5.4320    1.3137    1.9548 H   0  0  0  0  0  0  0  0  0  0  0  0
    5.3569    2.7091    0.8385 H   0  0  0  0  0  0  0  0  0  0  0  0
    4.3256   -0.2981   -0.4726 H   0  0  0  0  0  0  0  0  0  0  0  0
    1.5842    0.6839   -0.7537 H   0  0  0  0  0  0  0  0  0  0  0  0
    2.2949   -0.7843   -1.4398 H   0  0  0  0  0  0  0  0  0  0  0  0
    2.2373   -1.8379    0.8760 H   0  0  0  0  0  0  0  0  0  0  0  0
    1.4327   -0.4107    1.4952 H   0  0  0  0  0  0  0  0  0  0  0  0
    0.6560   -3.7312   -0.3579 H   0  0  0  0  0  0  0  0  0  0  0  0
   -1.7993   -3.8429   -0.8348 H   0  0  0  0  0  0  0  0  0  0  0  0
   -0.6957    1.1402    0.8189 H   0  0  0  0  0  0  0  0  0  0  0  0
   -4.4142    3.5737    0.8601 H   0  0  0  0  0  0  0  0  0  0  0  0
   -5.0309    1.9590    1.2295 H   0  0  0  0  0  0  0  0  0  0  0  0
   -4.7295    2.4643   -0.4792 H   0  0  0  0  0  0  0  0  0  0  0  0
   -4.7517    0.1136   -0.2296 H   0  0  0  0  0  0  0  0  0  0  0  0
   -4.0658   -2.1799   -0.7727 H   0  0  0  0  0  0  0  0  0  0  0  0
  1  2  1  0
  2  3  2  0
  2  4  1  0
  4  5  1  0
  5  6  1  0
  6  7  1  0
  7  8  2  0
  8  9  1  0
  9 10  1  0
 10 11  1  0
 11 12  2  0
 12 13  1  0
 13 14  1  0
 14 15  1  0
 13 16  2  0
 16 17  1  0
 11  7  1  0
 17 10  2  0
  1 18  1  0
  1 19  1  0
  1 20  1  0
  4 21  1  0
  5 22  1  0
  5 23  1  0
  6 24  1  0
  6 25  1  0
  8 26  1  0
  9 27  1  0
 12 28  1  0
 15 29  1  0
 15 30  1  0
 15 31  1  0
 16 32  1  0
 17 33  1  0
M  END
>  <coordinate_phase>  (43) 
MMFF94_after_optimization_status_retained

>  <molecule_id>  (43) 
melatonin

>  <seed>  (43) 
20260930

>  <conformer_id>  (43) 
42

>  <optimization_status>  (43) 
0

>  <energy_kcal_mol>  (43) 
3.758643429720923

>  <sasa_A2>  (43) 
477.280551167453

>  <sasa_orientation_sd_A2>  (43) 
2.002003469656755

>  <sasa_orientation_range_A2>  (43) 
9.57264884141108

>  <sasa_first_half_vs_all_abs_delta_A2>  (43) 
0.2391158849905537

>  <mass_weighted_Rg_A>  (43) 
3.4437742092863273

>  <unweighted_Rg_A>  (43) 
3.943934950690345

$$$$
melatonin_20260930_43
     RDKit          3D

 33 34  0  0  0  0  0  0  0  0999 V2000
   -4.6453   -0.9688    0.1072 C   0  0  0  0  0  0  0  0  0  0  0  0
   -3.5836   -0.8883    1.1710 C   0  0  0  0  0  0  0  0  0  0  0  0
   -3.6207   -1.5801    2.1830 O   0  0  0  0  0  0  0  0  0  0  0  0
   -2.5822    0.0151    0.8958 N   0  0  0  0  0  0  0  0  0  0  0  0
   -1.4014    0.0879    1.7390 C   0  0  0  0  0  0  0  0  0  0  0  0
   -0.6157    1.3872    1.5486 C   0  0  0  0  0  0  0  0  0  0  0  0
   -0.0733    1.5599    0.1607 C   0  0  0  0  0  0  0  0  0  0  0  0
   -0.5429    2.4409   -0.7949 C   0  0  0  0  0  0  0  0  0  0  0  0
    0.2189    2.3003   -1.9229 N   0  0  0  0  0  0  0  0  0  0  0  0
    1.1797    1.3364   -1.7296 C   0  0  0  0  0  0  0  0  0  0  0  0
    1.0278    0.8568   -0.4292 C   0  0  0  0  0  0  0  0  0  0  0  0
    1.9107   -0.1482    0.0287 C   0  0  0  0  0  0  0  0  0  0  0  0
    2.9046   -0.6405   -0.8258 C   0  0  0  0  0  0  0  0  0  0  0  0
    3.8190   -1.6111   -0.5125 O   0  0  0  0  0  0  0  0  0  0  0  0
    3.7334   -2.1797    0.7880 C   0  0  0  0  0  0  0  0  0  0  0  0
    3.0216   -0.1340   -2.1209 C   0  0  0  0  0  0  0  0  0  0  0  0
    2.1658    0.8629   -2.5998 C   0  0  0  0  0  0  0  0  0  0  0  0
   -4.5960   -0.1159   -0.5756 H   0  0  0  0  0  0  0  0  0  0  0  0
   -4.5111   -1.8915   -0.4633 H   0  0  0  0  0  0  0  0  0  0  0  0
   -5.6297   -0.9683    0.5834 H   0  0  0  0  0  0  0  0  0  0  0  0
   -2.4642    0.2976   -0.0702 H   0  0  0  0  0  0  0  0  0  0  0  0
   -0.7847   -0.7877    1.5070 H   0  0  0  0  0  0  0  0  0  0  0  0
   -1.7131    0.0006    2.7862 H   0  0  0  0  0  0  0  0  0  0  0  0
    0.2190    1.4090    2.2599 H   0  0  0  0  0  0  0  0  0  0  0  0
   -1.2602    2.2406    1.7953 H   0  0  0  0  0  0  0  0  0  0  0  0
   -1.3492    3.1623   -0.7629 H   0  0  0  0  0  0  0  0  0  0  0  0
    0.1030    2.8293   -2.7764 H   0  0  0  0  0  0  0  0  0  0  0  0
    1.7955   -0.5158    1.0406 H   0  0  0  0  0  0  0  0  0  0  0  0
    3.9142   -1.4255    1.5610 H   0  0  0  0  0  0  0  0  0  0  0  0
    2.7705   -2.6790    0.9386 H   0  0  0  0  0  0  0  0  0  0  0  0
    4.5179   -2.9378    0.8734 H   0  0  0  0  0  0  0  0  0  0  0  0
    3.7994   -0.5231   -2.7750 H   0  0  0  0  0  0  0  0  0  0  0  0
    2.2721    1.2481   -3.6083 H   0  0  0  0  0  0  0  0  0  0  0  0
  1  2  1  0
  2  3  2  0
  2  4  1  0
  4  5  1  0
  5  6  1  0
  6  7  1  0
  7  8  2  0
  8  9  1  0
  9 10  1  0
 10 11  1  0
 11 12  2  0
 12 13  1  0
 13 14  1  0
 14 15  1  0
 13 16  2  0
 16 17  1  0
 11  7  1  0
 17 10  2  0
  1 18  1  0
  1 19  1  0
  1 20  1  0
  4 21  1  0
  5 22  1  0
  5 23  1  0
  6 24  1  0
  6 25  1  0
  8 26  1  0
  9 27  1  0
 12 28  1  0
 15 29  1  0
 15 30  1  0
 15 31  1  0
 16 32  1  0
 17 33  1  0
M  END
>  <coordinate_phase>  (44) 
MMFF94_after_optimization_status_retained

>  <molecule_id>  (44) 
melatonin

>  <seed>  (44) 
20260930

>  <conformer_id>  (44) 
43

>  <optimization_status>  (44) 
0

>  <energy_kcal_mol>  (44) 
2.3436807884482116

>  <sasa_A2>  (44) 
478.1158668344768

>  <sasa_orientation_sd_A2>  (44) 
1.3381551690359565

>  <sasa_orientation_range_A2>  (44) 
5.709140675740343

>  <sasa_first_half_vs_all_abs_delta_A2>  (44) 
0.4212233966850363

>  <mass_weighted_Rg_A>  (44) 
3.3229963201887944

>  <unweighted_Rg_A>  (44) 
3.6238811130075046

$$$$
melatonin_20260930_44
     RDKit          3D

 33 34  0  0  0  0  0  0  0  0999 V2000
   -5.4714    1.4644    0.5355 C   0  0  0  0  0  0  0  0  0  0  0  0
   -4.2406    0.6132    0.6989 C   0  0  0  0  0  0  0  0  0  0  0  0
   -4.0650   -0.0932    1.6853 O   0  0  0  0  0  0  0  0  0  0  0  0
   -3.3591    0.6962   -0.3568 N   0  0  0  0  0  0  0  0  0  0  0  0
   -2.1891   -0.1659   -0.4106 C   0  0  0  0  0  0  0  0  0  0  0  0
   -1.1578    0.3387   -1.4197 C   0  0  0  0  0  0  0  0  0  0  0  0
    0.0308   -0.5616   -1.5240 C   0  0  0  0  0  0  0  0  0  0  0  0
    0.2253   -1.5594   -2.4595 C   0  0  0  0  0  0  0  0  0  0  0  0
    1.4348   -2.1512   -2.2123 N   0  0  0  0  0  0  0  0  0  0  0  0
    2.0419   -1.5584   -1.1307 C   0  0  0  0  0  0  0  0  0  0  0  0
    1.1854   -0.5570   -0.6768 C   0  0  0  0  0  0  0  0  0  0  0  0
    1.5823    0.2073    0.4398 C   0  0  0  0  0  0  0  0  0  0  0  0
    2.8106   -0.0456    1.0661 C   0  0  0  0  0  0  0  0  0  0  0  0
    3.0752    0.7681    2.1359 O   0  0  0  0  0  0  0  0  0  0  0  0
    4.2864    0.5319    2.8413 C   0  0  0  0  0  0  0  0  0  0  0  0
    3.6421   -1.0550    0.5828 C   0  0  0  0  0  0  0  0  0  0  0  0
    3.2728   -1.8307   -0.5245 C   0  0  0  0  0  0  0  0  0  0  0  0
   -5.6852    1.9699    1.4813 H   0  0  0  0  0  0  0  0  0  0  0  0
   -6.3143    0.8259    0.2590 H   0  0  0  0  0  0  0  0  0  0  0  0
   -5.3321    2.2280   -0.2350 H   0  0  0  0  0  0  0  0  0  0  0  0
   -3.7167    1.0582   -1.2312 H   0  0  0  0  0  0  0  0  0  0  0  0
   -1.7513   -0.2326    0.5925 H   0  0  0  0  0  0  0  0  0  0  0  0
   -2.5388   -1.1696   -0.6802 H   0  0  0  0  0  0  0  0  0  0  0  0
   -1.6281    0.4362   -2.4070 H   0  0  0  0  0  0  0  0  0  0  0  0
   -0.8328    1.3494   -1.1422 H   0  0  0  0  0  0  0  0  0  0  0  0
   -0.3944   -1.8993   -3.2788 H   0  0  0  0  0  0  0  0  0  0  0  0
    1.8302   -2.9143   -2.7437 H   0  0  0  0  0  0  0  0  0  0  0  0
    0.9372    0.9933    0.8219 H   0  0  0  0  0  0  0  0  0  0  0  0
    4.3055   -0.4762    3.2687 H   0  0  0  0  0  0  0  0  0  0  0  0
    5.1567    0.7071    2.2003 H   0  0  0  0  0  0  0  0  0  0  0  0
    4.3352    1.2450    3.6699 H   0  0  0  0  0  0  0  0  0  0  0  0
    4.5988   -1.2713    1.0472 H   0  0  0  0  0  0  0  0  0  0  0  0
    3.9256   -2.6153   -0.8933 H   0  0  0  0  0  0  0  0  0  0  0  0
  1  2  1  0
  2  3  2  0
  2  4  1  0
  4  5  1  0
  5  6  1  0
  6  7  1  0
  7  8  2  0
  8  9  1  0
  9 10  1  0
 10 11  1  0
 11 12  2  0
 12 13  1  0
 13 14  1  0
 14 15  1  0
 13 16  2  0
 16 17  1  0
 11  7  1  0
 17 10  2  0
  1 18  1  0
  1 19  1  0
  1 20  1  0
  4 21  1  0
  5 22  1  0
  5 23  1  0
  6 24  1  0
  6 25  1  0
  8 26  1  0
  9 27  1  0
 12 28  1  0
 15 29  1  0
 15 30  1  0
 15 31  1  0
 16 32  1  0
 17 33  1  0
M  END
>  <coordinate_phase>  (45) 
MMFF94_after_optimization_status_retained

>  <molecule_id>  (45) 
melatonin

>  <seed>  (45) 
20260930

>  <conformer_id>  (45) 
44

>  <optimization_status>  (45) 
0

>  <energy_kcal_mol>  (45) 
4.977831961930419

>  <sasa_A2>  (45) 
485.7325238114727

>  <sasa_orientation_sd_A2>  (45) 
1.8935666812301566

>  <sasa_orientation_range_A2>  (45) 
9.549861179820482

>  <sasa_first_half_vs_all_abs_delta_A2>  (45) 
0.4007485061737839

>  <mass_weighted_Rg_A>  (45) 
3.5767663711841022

>  <unweighted_Rg_A>  (45) 
4.033512634419223

$$$$
melatonin_20260930_45
     RDKit          3D

 33 34  0  0  0  0  0  0  0  0999 V2000
    5.2734   -0.0505    2.3169 C   0  0  0  0  0  0  0  0  0  0  0  0
    4.4012   -0.3532    1.1278 C   0  0  0  0  0  0  0  0  0  0  0  0
    4.7112   -1.1955    0.2926 O   0  0  0  0  0  0  0  0  0  0  0  0
    3.2412    0.3888    1.0822 N   0  0  0  0  0  0  0  0  0  0  0  0
    2.2223    0.1139    0.0814 C   0  0  0  0  0  0  0  0  0  0  0  0
    1.3211    1.3253   -0.1564 C   0  0  0  0  0  0  0  0  0  0  0  0
    0.2264    1.0396   -1.1332 C   0  0  0  0  0  0  0  0  0  0  0  0
    0.2589    1.2786   -2.4933 C   0  0  0  0  0  0  0  0  0  0  0  0
   -0.9326    0.8726   -3.0307 N   0  0  0  0  0  0  0  0  0  0  0  0
   -1.7517    0.3718   -2.0464 C   0  0  0  0  0  0  0  0  0  0  0  0
   -1.0526    0.4639   -0.8442 C   0  0  0  0  0  0  0  0  0  0  0  0
   -1.6824    0.0075    0.3321 C   0  0  0  0  0  0  0  0  0  0  0  0
   -2.9790   -0.5225    0.2773 C   0  0  0  0  0  0  0  0  0  0  0  0
   -3.4726   -0.9279    1.4893 O   0  0  0  0  0  0  0  0  0  0  0  0
   -4.7778   -1.4916    1.4967 C   0  0  0  0  0  0  0  0  0  0  0  0
   -3.6475   -0.5980   -0.9437 C   0  0  0  0  0  0  0  0  0  0  0  0
   -3.0460   -0.1523   -2.1286 C   0  0  0  0  0  0  0  0  0  0  0  0
    6.3141    0.0206    1.9885 H   0  0  0  0  0  0  0  0  0  0  0  0
    5.1716   -0.8550    3.0498 H   0  0  0  0  0  0  0  0  0  0  0  0
    4.9987    0.8985    2.7858 H   0  0  0  0  0  0  0  0  0  0  0  0
    2.9423    0.8335    1.9405 H   0  0  0  0  0  0  0  0  0  0  0  0
    1.6409   -0.7420    0.4439 H   0  0  0  0  0  0  0  0  0  0  0  0
    2.7060   -0.1938   -0.8533 H   0  0  0  0  0  0  0  0  0  0  0  0
    0.8852    1.6570    0.7947 H   0  0  0  0  0  0  0  0  0  0  0  0
    1.9272    2.1665   -0.5171 H   0  0  0  0  0  0  0  0  0  0  0  0
    1.0313    1.6994   -3.1238 H   0  0  0  0  0  0  0  0  0  0  0  0
   -1.1793    0.9279   -4.0090 H   0  0  0  0  0  0  0  0  0  0  0  0
   -1.1666    0.0632    1.2859 H   0  0  0  0  0  0  0  0  0  0  0  0
   -5.0167   -1.7677    2.5282 H   0  0  0  0  0  0  0  0  0  0  0  0
   -5.5246   -0.7620    1.1664 H   0  0  0  0  0  0  0  0  0  0  0  0
   -4.8184   -2.4027    0.8906 H   0  0  0  0  0  0  0  0  0  0  0  0
   -4.6517   -1.0032   -1.0159 H   0  0  0  0  0  0  0  0  0  0  0  0
   -3.5730   -0.2157   -3.0751 H   0  0  0  0  0  0  0  0  0  0  0  0
  1  2  1  0
  2  3  2  0
  2  4  1  0
  4  5  1  0
  5  6  1  0
  6  7  1  0
  7  8  2  0
  8  9  1  0
  9 10  1  0
 10 11  1  0
 11 12  2  0
 12 13  1  0
 13 14  1  0
 14 15  1  0
 13 16  2  0
 16 17  1  0
 11  7  1  0
 17 10  2  0
  1 18  1  0
  1 19  1  0
  1 20  1  0
  4 21  1  0
  5 22  1  0
  5 23  1  0
  6 24  1  0
  6 25  1  0
  8 26  1  0
  9 27  1  0
 12 28  1  0
 15 29  1  0
 15 30  1  0
 15 31  1  0
 16 32  1  0
 17 33  1  0
M  END
>  <coordinate_phase>  (46) 
MMFF94_after_optimization_status_retained

>  <molecule_id>  (46) 
melatonin

>  <seed>  (46) 
20260930

>  <conformer_id>  (46) 
45

>  <optimization_status>  (46) 
0

>  <energy_kcal_mol>  (46) 
4.585563219163863

>  <sasa_A2>  (46) 
485.82991517247416

>  <sasa_orientation_sd_A2>  (46) 
3.4417382570894492

>  <sasa_orientation_range_A2>  (46) 
16.577208777875683

>  <sasa_first_half_vs_all_abs_delta_A2>  (46) 
0.4765840831998389

>  <mass_weighted_Rg_A>  (46) 
3.632135747752745

>  <unweighted_Rg_A>  (46) 
4.049207828759815

$$$$
melatonin_20260930_46
     RDKit          3D

 33 34  0  0  0  0  0  0  0  0999 V2000
    4.4372   -1.6946    0.5487 C   0  0  0  0  0  0  0  0  0  0  0  0
    3.5527   -1.3257   -0.6118 C   0  0  0  0  0  0  0  0  0  0  0  0
    3.6370   -1.8859   -1.6996 O   0  0  0  0  0  0  0  0  0  0  0  0
    2.6518   -0.3231   -0.3330 N   0  0  0  0  0  0  0  0  0  0  0  0
    1.6189    0.0289   -1.2921 C   0  0  0  0  0  0  0  0  0  0  0  0
    0.9939    1.3980   -1.0151 C   0  0  0  0  0  0  0  0  0  0  0  0
    0.2930    1.4785    0.3087 C   0  0  0  0  0  0  0  0  0  0  0  0
    0.7391    2.1550    1.4281 C   0  0  0  0  0  0  0  0  0  0  0  0
   -0.1830    1.9929    2.4261 N   0  0  0  0  0  0  0  0  0  0  0  0
   -1.2273    1.2150    1.9857 C   0  0  0  0  0  0  0  0  0  0  0  0
   -0.9625    0.8814    0.6580 C   0  0  0  0  0  0  0  0  0  0  0  0
   -1.8993    0.0840   -0.0389 C   0  0  0  0  0  0  0  0  0  0  0  0
   -3.0580   -0.3547    0.6131 C   0  0  0  0  0  0  0  0  0  0  0  0
   -4.0412   -1.1313    0.0592 O   0  0  0  0  0  0  0  0  0  0  0  0
   -3.8532   -1.5424   -1.2890 C   0  0  0  0  0  0  0  0  0  0  0  0
   -3.2844    0.0007    1.9434 C   0  0  0  0  0  0  0  0  0  0  0  0
   -2.3781    0.7916    2.6567 C   0  0  0  0  0  0  0  0  0  0  0  0
    4.4080   -0.9342    1.3343 H   0  0  0  0  0  0  0  0  0  0  0  0
    5.4692   -1.7832    0.1980 H   0  0  0  0  0  0  0  0  0  0  0  0
    4.1043   -2.6496    0.9632 H   0  0  0  0  0  0  0  0  0  0  0  0
    2.4402   -0.1468    0.6421 H   0  0  0  0  0  0  0  0  0  0  0  0
    0.8654   -0.7661   -1.2612 H   0  0  0  0  0  0  0  0  0  0  0  0
    2.0577    0.0250   -2.2965 H   0  0  0  0  0  0  0  0  0  0  0  0
    1.7739    2.1688   -1.0603 H   0  0  0  0  0  0  0  0  0  0  0  0
    0.2757    1.6318   -1.8106 H   0  0  0  0  0  0  0  0  0  0  0  0
    1.6306    2.7457    1.5945 H   0  0  0  0  0  0  0  0  0  0  0  0
   -0.1168    2.3897    3.3534 H   0  0  0  0  0  0  0  0  0  0  0  0
   -1.6953   -0.1697   -1.0716 H   0  0  0  0  0  0  0  0  0  0  0  0
   -2.9536   -2.1581   -1.3929 H   0  0  0  0  0  0  0  0  0  0  0  0
   -4.7121   -2.1580   -1.5734 H   0  0  0  0  0  0  0  0  0  0  0  0
   -3.8238   -0.6805   -1.9638 H   0  0  0  0  0  0  0  0  0  0  0  0
   -4.1896   -0.3447    2.4387 H   0  0  0  0  0  0  0  0  0  0  0  0
   -2.5705    1.0617    3.6896 H   0  0  0  0  0  0  0  0  0  0  0  0
  1  2  1  0
  2  3  2  0
  2  4  1  0
  4  5  1  0
  5  6  1  0
  6  7  1  0
  7  8  2  0
  8  9  1  0
  9 10  1  0
 10 11  1  0
 11 12  2  0
 12 13  1  0
 13 14  1  0
 14 15  1  0
 13 16  2  0
 16 17  1  0
 11  7  1  0
 17 10  2  0
  1 18  1  0
  1 19  1  0
  1 20  1  0
  4 21  1  0
  5 22  1  0
  5 23  1  0
  6 24  1  0
  6 25  1  0
  8 26  1  0
  9 27  1  0
 12 28  1  0
 15 29  1  0
 15 30  1  0
 15 31  1  0
 16 32  1  0
 17 33  1  0
M  END
>  <coordinate_phase>  (47) 
MMFF94_after_optimization_status_retained

>  <molecule_id>  (47) 
melatonin

>  <seed>  (47) 
20260930

>  <conformer_id>  (47) 
46

>  <optimization_status>  (47) 
0

>  <energy_kcal_mol>  (47) 
2.3436807892564504

>  <sasa_A2>  (47) 
477.8828496799262

>  <sasa_orientation_sd_A2>  (47) 
1.796847835040312

>  <sasa_orientation_range_A2>  (47) 
6.900587914677146

>  <sasa_first_half_vs_all_abs_delta_A2>  (47) 
0.12285368337256841

>  <mass_weighted_Rg_A>  (47) 
3.3229960348223506

>  <unweighted_Rg_A>  (47) 
3.6238810477421723

$$$$
melatonin_20260930_47
     RDKit          3D

 33 34  0  0  0  0  0  0  0  0999 V2000
    4.5119    1.4170   -1.4015 C   0  0  0  0  0  0  0  0  0  0  0  0
    3.9606    1.1758   -0.0218 C   0  0  0  0  0  0  0  0  0  0  0  0
    4.3794    1.7782    0.9608 O   0  0  0  0  0  0  0  0  0  0  0  0
    2.9559    0.2364    0.0226 N   0  0  0  0  0  0  0  0  0  0  0  0
    2.2023    0.0118    1.2450 C   0  0  0  0  0  0  0  0  0  0  0  0
    1.4831   -1.3392    1.2555 C   0  0  0  0  0  0  0  0  0  0  0  0
    0.4581   -1.4796    0.1693 C   0  0  0  0  0  0  0  0  0  0  0  0
    0.5782   -2.2453   -0.9750 C   0  0  0  0  0  0  0  0  0  0  0  0
   -0.5712   -2.1118   -1.7060 N   0  0  0  0  0  0  0  0  0  0  0  0
   -1.4452   -1.2657   -1.0657 C   0  0  0  0  0  0  0  0  0  0  0  0
   -0.8310   -0.8578    0.1172 C   0  0  0  0  0  0  0  0  0  0  0  0
   -1.5360    0.0177    0.9686 C   0  0  0  0  0  0  0  0  0  0  0  0
   -2.8189    0.4611    0.6183 C   0  0  0  0  0  0  0  0  0  0  0  0
   -3.3901    1.3076    1.5312 O   0  0  0  0  0  0  0  0  0  0  0  0
   -4.6924    1.7939    1.2332 C   0  0  0  0  0  0  0  0  0  0  0  0
   -3.4001    0.0334   -0.5743 C   0  0  0  0  0  0  0  0  0  0  0  0
   -2.7243   -0.8391   -1.4381 C   0  0  0  0  0  0  0  0  0  0  0  0
    4.2172    0.6257   -2.0966 H   0  0  0  0  0  0  0  0  0  0  0  0
    4.1404    2.3756   -1.7729 H   0  0  0  0  0  0  0  0  0  0  0  0
    5.6041    1.4379   -1.3518 H   0  0  0  0  0  0  0  0  0  0  0  0
    2.4759    0.0266   -0.8445 H   0  0  0  0  0  0  0  0  0  0  0  0
    2.8891    0.0658    2.0973 H   0  0  0  0  0  0  0  0  0  0  0  0
    1.4924    0.8409    1.3425 H   0  0  0  0  0  0  0  0  0  0  0  0
    2.2228   -2.1447    1.1622 H   0  0  0  0  0  0  0  0  0  0  0  0
    0.9917   -1.4762    2.2265 H   0  0  0  0  0  0  0  0  0  0  0  0
    1.3815   -2.8808   -1.3246 H   0  0  0  0  0  0  0  0  0  0  0  0
   -0.7599   -2.5711   -2.5863 H   0  0  0  0  0  0  0  0  0  0  0  0
   -1.0902    0.3531    1.9006 H   0  0  0  0  0  0  0  0  0  0  0  0
   -5.4160    0.9742    1.1739 H   0  0  0  0  0  0  0  0  0  0  0  0
   -4.6910    2.3888    0.3139 H   0  0  0  0  0  0  0  0  0  0  0  0
   -4.9998    2.4500    2.0532 H   0  0  0  0  0  0  0  0  0  0  0  0
   -4.3922    0.3598   -0.8698 H   0  0  0  0  0  0  0  0  0  0  0  0
   -3.1860   -1.1698   -2.3629 H   0  0  0  0  0  0  0  0  0  0  0  0
  1  2  1  0
  2  3  2  0
  2  4  1  0
  4  5  1  0
  5  6  1  0
  6  7  1  0
  7  8  2  0
  8  9  1  0
  9 10  1  0
 10 11  1  0
 11 12  2  0
 12 13  1  0
 13 14  1  0
 14 15  1  0
 13 16  2  0
 16 17  1  0
 11  7  1  0
 17 10  2  0
  1 18  1  0
  1 19  1  0
  1 20  1  0
  4 21  1  0
  5 22  1  0
  5 23  1  0
  6 24  1  0
  6 25  1  0
  8 26  1  0
  9 27  1  0
 12 28  1  0
 15 29  1  0
 15 30  1  0
 15 31  1  0
 16 32  1  0
 17 33  1  0
M  END
>  <coordinate_phase>  (48) 
MMFF94_after_optimization_status_retained

>  <molecule_id>  (48) 
melatonin

>  <seed>  (48) 
20260930

>  <conformer_id>  (48) 
47

>  <optimization_status>  (48) 
0

>  <energy_kcal_mol>  (48) 
2.6355160225119523

>  <sasa_A2>  (48) 
479.11189179189296

>  <sasa_orientation_sd_A2>  (48) 
1.5302892575650218

>  <sasa_orientation_range_A2>  (48) 
5.471859239710625

>  <sasa_first_half_vs_all_abs_delta_A2>  (48) 
0.2803493254773457

>  <mass_weighted_Rg_A>  (48) 
3.404607045407556

>  <unweighted_Rg_A>  (48) 
3.7909249169131383

$$$$
melatonin_20260930_48
     RDKit          3D

 33 34  0  0  0  0  0  0  0  0999 V2000
   -3.2032    1.2631    2.0404 C   0  0  0  0  0  0  0  0  0  0  0  0
   -3.5486    0.8942    0.6225 C   0  0  0  0  0  0  0  0  0  0  0  0
   -4.6966    0.9516    0.1946 O   0  0  0  0  0  0  0  0  0  0  0  0
   -2.4697    0.4847   -0.1267 N   0  0  0  0  0  0  0  0  0  0  0  0
   -2.6529   -0.0517   -1.4648 C   0  0  0  0  0  0  0  0  0  0  0  0
   -1.3652   -0.0394   -2.2924 C   0  0  0  0  0  0  0  0  0  0  0  0
   -0.3039   -0.9457   -1.7434 C   0  0  0  0  0  0  0  0  0  0  0  0
   -0.1688   -2.2967   -1.9991 C   0  0  0  0  0  0  0  0  0  0  0  0
    0.9147   -2.7613   -1.3036 N   0  0  0  0  0  0  0  0  0  0  0  0
    1.4942   -1.7394   -0.5892 C   0  0  0  0  0  0  0  0  0  0  0  0
    0.7590   -0.5853   -0.8529 C   0  0  0  0  0  0  0  0  0  0  0  0
    1.1597    0.6182   -0.2361 C   0  0  0  0  0  0  0  0  0  0  0  0
    2.2680    0.6357    0.6216 C   0  0  0  0  0  0  0  0  0  0  0  0
    2.5434    1.8648    1.1594 O   0  0  0  0  0  0  0  0  0  0  0  0
    3.6864    1.9593    1.9998 C   0  0  0  0  0  0  0  0  0  0  0  0
    2.9779   -0.5394    0.8632 C   0  0  0  0  0  0  0  0  0  0  0  0
    2.6053   -1.7486    0.2605 C   0  0  0  0  0  0  0  0  0  0  0  0
   -2.1276    1.4182    2.1646 H   0  0  0  0  0  0  0  0  0  0  0  0
   -3.7143    2.1935    2.3028 H   0  0  0  0  0  0  0  0  0  0  0  0
   -3.5286    0.4614    2.7083 H   0  0  0  0  0  0  0  0  0  0  0  0
   -1.6459    0.1779    0.3783 H   0  0  0  0  0  0  0  0  0  0  0  0
   -3.4203    0.5410   -1.9756 H   0  0  0  0  0  0  0  0  0  0  0  0
   -3.0415   -1.0710   -1.3554 H   0  0  0  0  0  0  0  0  0  0  0  0
   -0.9776    0.9845   -2.3596 H   0  0  0  0  0  0  0  0  0  0  0  0
   -1.6006   -0.3516   -3.3176 H   0  0  0  0  0  0  0  0  0  0  0  0
   -0.7531   -2.9664   -2.6167 H   0  0  0  0  0  0  0  0  0  0  0  0
    1.2447   -3.7166   -1.3089 H   0  0  0  0  0  0  0  0  0  0  0  0
    0.6132    1.5383   -0.4245 H   0  0  0  0  0  0  0  0  0  0  0  0
    3.5686    1.3412    2.8960 H   0  0  0  0  0  0  0  0  0  0  0  0
    3.7778    3.0005    2.3239 H   0  0  0  0  0  0  0  0  0  0  0  0
    4.6003    1.6986    1.4558 H   0  0  0  0  0  0  0  0  0  0  0  0
    3.8396   -0.5553    1.5231 H   0  0  0  0  0  0  0  0  0  0  0  0
    3.1655   -2.6583    0.4519 H   0  0  0  0  0  0  0  0  0  0  0  0
  1  2  1  0
  2  3  2  0
  2  4  1  0
  4  5  1  0
  5  6  1  0
  6  7  1  0
  7  8  2  0
  8  9  1  0
  9 10  1  0
 10 11  1  0
 11 12  2  0
 12 13  1  0
 13 14  1  0
 14 15  1  0
 13 16  2  0
 16 17  1  0
 11  7  1  0
 17 10  2  0
  1 18  1  0
  1 19  1  0
  1 20  1  0
  4 21  1  0
  5 22  1  0
  5 23  1  0
  6 24  1  0
  6 25  1  0
  8 26  1  0
  9 27  1  0
 12 28  1  0
 15 29  1  0
 15 30  1  0
 15 31  1  0
 16 32  1  0
 17 33  1  0
M  END
>  <coordinate_phase>  (49) 
MMFF94_after_optimization_status_retained

>  <molecule_id>  (49) 
melatonin

>  <seed>  (49) 
20260930

>  <conformer_id>  (49) 
48

>  <optimization_status>  (49) 
0

>  <energy_kcal_mol>  (49) 
1.7485570824437708

>  <sasa_A2>  (49) 
471.6774238730239

>  <sasa_orientation_sd_A2>  (49) 
1.4119318411439474

>  <sasa_orientation_range_A2>  (49) 
5.553000410344794

>  <sasa_first_half_vs_all_abs_delta_A2>  (49) 
0.14369284726251408

>  <mass_weighted_Rg_A>  (49) 
3.228888559524762

>  <unweighted_Rg_A>  (49) 
3.5777705718341686

$$$$
