phenylquinoline_20260928_0
     RDKit          3D

 27 29  0  0  0  0  0  0  0  0999 V2000
   -4.4964   -1.0588    0.2314 C   0  0  0  0  0  0  0  0  0  0  0  0
   -4.2373    0.2480   -0.1292 C   0  0  0  0  0  0  0  0  0  0  0  0
   -2.9359    0.6888   -0.2582 C   0  0  0  0  0  0  0  0  0  0  0  0
   -1.8696   -0.1532   -0.0333 C   0  0  0  0  0  0  0  0  0  0  0  0
   -2.1637   -1.4514    0.3252 C   0  0  0  0  0  0  0  0  0  0  0  0
   -3.4509   -1.9286    0.4641 C   0  0  0  0  0  0  0  0  0  0  0  0
   -0.4765    0.2553   -0.1540 C   0  0  0  0  0  0  0  0  0  0  0  0
   -0.0959    1.5328   -0.5073 C   0  0  0  0  0  0  0  0  0  0  0  0
    1.2278    1.9180   -0.6212 C   0  0  0  0  0  0  0  0  0  0  0  0
    2.2002    0.9720   -0.3671 C   0  0  0  0  0  0  0  0  0  0  0  0
    3.5164    1.3450   -0.4776 C   0  0  0  0  0  0  0  0  0  0  0  0
    4.4938    0.3821   -0.2189 C   0  0  0  0  0  0  0  0  0  0  0  0
    4.1031   -0.8946    0.1343 C   0  0  0  0  0  0  0  0  0  0  0  0
    2.7695   -1.2627    0.2435 C   0  0  0  0  0  0  0  0  0  0  0  0
    1.8111   -0.3007   -0.0150 C   0  0  0  0  0  0  0  0  0  0  0  0
    0.5146   -0.6247    0.0819 N   0  0  0  0  0  0  0  0  0  0  0  0
   -5.4976   -1.4585    0.3473 H   0  0  0  0  0  0  0  0  0  0  0  0
   -5.0715    0.9118   -0.3066 H   0  0  0  0  0  0  0  0  0  0  0  0
   -2.7665    1.7140   -0.5410 H   0  0  0  0  0  0  0  0  0  0  0  0
   -1.3668   -2.1531    0.5132 H   0  0  0  0  0  0  0  0  0  0  0  0
   -3.6503   -2.9575    0.7481 H   0  0  0  0  0  0  0  0  0  0  0  0
   -0.8325    2.2932   -0.7118 H   0  0  0  0  0  0  0  0  0  0  0  0
    1.4834    2.9382   -0.9031 H   0  0  0  0  0  0  0  0  0  0  0  0
    3.8635    2.3223   -0.7482 H   0  0  0  0  0  0  0  0  0  0  0  0
    5.5517    0.6354   -0.2949 H   0  0  0  0  0  0  0  0  0  0  0  0
    4.8775   -1.6245    0.3302 H   0  0  0  0  0  0  0  0  0  0  0  0
    2.4990   -2.2885    0.5271 H   0  0  0  0  0  0  0  0  0  0  0  0
  1  2  2  0
  2  3  1  0
  3  4  2  0
  4  5  1  0
  5  6  2  0
  4  7  1  0
  7  8  1  0
  8  9  2  0
  9 10  1  0
 10 11  2  0
 11 12  1  0
 12 13  2  0
 13 14  1  0
 14 15  2  0
 15 16  1  0
  6  1  1  0
 16  7  2  0
 15 10  1  0
  1 17  1  0
  2 18  1  0
  3 19  1  0
  5 20  1  0
  6 21  1  0
  8 22  1  0
  9 23  1  0
 11 24  1  0
 12 25  1  0
 13 26  1  0
 14 27  1  0
M  END
>  <coordinate_phase>  (1) 
ETKDG_before_MMFF

>  <molecule_id>  (1) 
phenylquinoline

>  <seed>  (1) 
20260928

>  <conformer_id>  (1) 
0

$$$$
phenylquinoline_20260929_1
     RDKit          3D

 27 29  0  0  0  0  0  0  0  0999 V2000
   -4.5764    0.6925    0.1819 C   0  0  0  0  0  0  0  0  0  0  0  0
   -3.5816    1.6534    0.2877 C   0  0  0  0  0  0  0  0  0  0  0  0
   -2.2360    1.3124    0.1890 C   0  0  0  0  0  0  0  0  0  0  0  0
   -1.8691    0.0035   -0.0172 C   0  0  0  0  0  0  0  0  0  0  0  0
   -2.8699   -0.9368   -0.1197 C   0  0  0  0  0  0  0  0  0  0  0  0
   -4.1956   -0.6062   -0.0232 C   0  0  0  0  0  0  0  0  0  0  0  0
   -0.4512   -0.3117   -0.1147 C   0  0  0  0  0  0  0  0  0  0  0  0
    0.0370   -1.5828   -0.3197 C   0  0  0  0  0  0  0  0  0  0  0  0
    1.3849   -1.8384   -0.4060 C   0  0  0  0  0  0  0  0  0  0  0  0
    2.2539   -0.7628   -0.2788 C   0  0  0  0  0  0  0  0  0  0  0  0
    3.5991   -1.0438   -0.3688 C   0  0  0  0  0  0  0  0  0  0  0  0
    4.5095   -0.0104   -0.2493 C   0  0  0  0  0  0  0  0  0  0  0  0
    4.0379    1.2723   -0.0432 C   0  0  0  0  0  0  0  0  0  0  0  0
    2.6702    1.5307    0.0442 C   0  0  0  0  0  0  0  0  0  0  0  0
    1.7579    0.5084   -0.0735 C   0  0  0  0  0  0  0  0  0  0  0  0
    0.4287    0.6987    0.0025 N   0  0  0  0  0  0  0  0  0  0  0  0
   -5.6308    0.9243    0.2541 H   0  0  0  0  0  0  0  0  0  0  0  0
   -3.9128    2.6703    0.4495 H   0  0  0  0  0  0  0  0  0  0  0  0
   -1.5396    2.1328    0.2848 H   0  0  0  0  0  0  0  0  0  0  0  0
   -2.6207   -1.9712   -0.2811 H   0  0  0  0  0  0  0  0  0  0  0  0
   -4.9463   -1.3962   -0.1126 H   0  0  0  0  0  0  0  0  0  0  0  0
   -0.6406   -2.4087   -0.4170 H   0  0  0  0  0  0  0  0  0  0  0  0
    1.7609   -2.8396   -0.5672 H   0  0  0  0  0  0  0  0  0  0  0  0
    3.9461   -2.0550   -0.5304 H   0  0  0  0  0  0  0  0  0  0  0  0
    5.5696   -0.2455   -0.3222 H   0  0  0  0  0  0  0  0  0  0  0  0
    4.7773    2.0681    0.0474 H   0  0  0  0  0  0  0  0  0  0  0  0
    2.3375    2.5419    0.2053 H   0  0  0  0  0  0  0  0  0  0  0  0
  1  2  2  0
  2  3  1  0
  3  4  2  0
  4  5  1  0
  5  6  2  0
  4  7  1  0
  7  8  1  0
  8  9  2  0
  9 10  1  0
 10 11  2  0
 11 12  1  0
 12 13  2  0
 13 14  1  0
 14 15  2  0
 15 16  1  0
  6  1  1  0
 16  7  2  0
 15 10  1  0
  1 17  1  0
  2 18  1  0
  3 19  1  0
  5 20  1  0
  6 21  1  0
  8 22  1  0
  9 23  1  0
 11 24  1  0
 12 25  1  0
 13 26  1  0
 14 27  1  0
M  END
>  <coordinate_phase>  (2) 
ETKDG_before_MMFF

>  <molecule_id>  (2) 
phenylquinoline

>  <seed>  (2) 
20260929

>  <conformer_id>  (2) 
1

$$$$
phenylquinoline_20260930_2
     RDKit          3D

 27 29  0  0  0  0  0  0  0  0999 V2000
   -4.5033   -0.6282    0.7748 C   0  0  0  0  0  0  0  0  0  0  0  0
   -3.4760   -1.4244    1.2360 C   0  0  0  0  0  0  0  0  0  0  0  0
   -2.1646   -1.0825    0.8993 C   0  0  0  0  0  0  0  0  0  0  0  0
   -1.8868    0.0240    0.1236 C   0  0  0  0  0  0  0  0  0  0  0  0
   -2.9281    0.8049   -0.3260 C   0  0  0  0  0  0  0  0  0  0  0  0
   -4.2295    0.4817   -0.0029 C   0  0  0  0  0  0  0  0  0  0  0  0
   -0.4863    0.2957   -0.1723 C   0  0  0  0  0  0  0  0  0  0  0  0
   -0.0602    1.3627   -0.9329 C   0  0  0  0  0  0  0  0  0  0  0  0
    1.2769    1.5624   -1.1749 C   0  0  0  0  0  0  0  0  0  0  0  0
    2.2186    0.6966   -0.6597 C   0  0  0  0  0  0  0  0  0  0  0  0
    3.5738    0.8471   -0.8695 C   0  0  0  0  0  0  0  0  0  0  0  0
    4.5168   -0.0156   -0.3564 C   0  0  0  0  0  0  0  0  0  0  0  0
    4.0621   -1.0879    0.4101 C   0  0  0  0  0  0  0  0  0  0  0  0
    2.7061   -1.2431    0.6232 C   0  0  0  0  0  0  0  0  0  0  0  0
    1.7768   -0.3664    0.0996 C   0  0  0  0  0  0  0  0  0  0  0  0
    0.4390   -0.5274    0.3152 N   0  0  0  0  0  0  0  0  0  0  0  0
   -5.5259   -0.8748    1.0237 H   0  0  0  0  0  0  0  0  0  0  0  0
   -3.6624   -2.2983    1.8460 H   0  0  0  0  0  0  0  0  0  0  0  0
   -1.3953   -1.7394    1.2860 H   0  0  0  0  0  0  0  0  0  0  0  0
   -2.7299    1.6719   -0.9323 H   0  0  0  0  0  0  0  0  0  0  0  0
   -5.0210    1.1364   -0.3863 H   0  0  0  0  0  0  0  0  0  0  0  0
   -0.7802    2.0534   -1.3465 H   0  0  0  0  0  0  0  0  0  0  0  0
    1.6004    2.4174   -1.7830 H   0  0  0  0  0  0  0  0  0  0  0  0
    3.9337    1.6821   -1.4668 H   0  0  0  0  0  0  0  0  0  0  0  0
    5.5818    0.1018   -0.5208 H   0  0  0  0  0  0  0  0  0  0  0  0
    4.8113   -1.7617    0.8097 H   0  0  0  0  0  0  0  0  0  0  0  0
    2.3523   -2.0887    1.2272 H   0  0  0  0  0  0  0  0  0  0  0  0
  1  2  2  0
  2  3  1  0
  3  4  2  0
  4  5  1  0
  5  6  2  0
  4  7  1  0
  7  8  1  0
  8  9  2  0
  9 10  1  0
 10 11  2  0
 11 12  1  0
 12 13  2  0
 13 14  1  0
 14 15  2  0
 15 16  1  0
  6  1  1  0
 16  7  2  0
 15 10  1  0
  1 17  1  0
  2 18  1  0
  3 19  1  0
  5 20  1  0
  6 21  1  0
  8 22  1  0
  9 23  1  0
 11 24  1  0
 12 25  1  0
 13 26  1  0
 14 27  1  0
M  END
>  <coordinate_phase>  (3) 
ETKDG_before_MMFF

>  <molecule_id>  (3) 
phenylquinoline

>  <seed>  (3) 
20260930

>  <conformer_id>  (3) 
2

$$$$
