phenylquinoline_20260928_0
     RDKit          3D

 27 29  0  0  0  0  0  0  0  0999 V2000
   -4.5257   -1.1141    0.2468 C   0  0  0  0  0  0  0  0  0  0  0  0
   -4.2954    0.2074   -0.1177 C   0  0  0  0  0  0  0  0  0  0  0  0
   -2.9846    0.6838   -0.2565 C   0  0  0  0  0  0  0  0  0  0  0  0
   -1.8663   -0.1443   -0.0358 C   0  0  0  0  0  0  0  0  0  0  0  0
   -2.1402   -1.4787    0.3326 C   0  0  0  0  0  0  0  0  0  0  0  0
   -3.4469   -1.9595    0.4726 C   0  0  0  0  0  0  0  0  0  0  0  0
   -0.4609    0.3295   -0.1745 C   0  0  0  0  0  0  0  0  0  0  0  0
   -0.1086    1.6286   -0.5336 C   0  0  0  0  0  0  0  0  0  0  0  0
    1.2385    1.9734   -0.6365 C   0  0  0  0  0  0  0  0  0  0  0  0
    2.2227    1.0174   -0.3797 C   0  0  0  0  0  0  0  0  0  0  0  0
    3.5940    1.3174   -0.4705 C   0  0  0  0  0  0  0  0  0  0  0  0
    4.5467    0.3359   -0.2065 C   0  0  0  0  0  0  0  0  0  0  0  0
    4.1334   -0.9433    0.1475 C   0  0  0  0  0  0  0  0  0  0  0  0
    2.7684   -1.2340    0.2356 C   0  0  0  0  0  0  0  0  0  0  0  0
    1.7980   -0.2745   -0.0222 C   0  0  0  0  0  0  0  0  0  0  0  0
    0.4975   -0.6034    0.0761 N   0  0  0  0  0  0  0  0  0  0  0  0
   -5.5416   -1.4838    0.3546 H   0  0  0  0  0  0  0  0  0  0  0  0
   -5.1351    0.8744   -0.2959 H   0  0  0  0  0  0  0  0  0  0  0  0
   -2.8682    1.7244   -0.5432 H   0  0  0  0  0  0  0  0  0  0  0  0
   -1.3181   -2.1695    0.5174 H   0  0  0  0  0  0  0  0  0  0  0  0
   -3.6131   -2.9948    0.7581 H   0  0  0  0  0  0  0  0  0  0  0  0
   -0.8510    2.3898   -0.7383 H   0  0  0  0  0  0  0  0  0  0  0  0
    1.5086    2.9881   -0.9169 H   0  0  0  0  0  0  0  0  0  0  0  0
    3.9236    2.3161   -0.7469 H   0  0  0  0  0  0  0  0  0  0  0  0
    5.6061    0.5686   -0.2769 H   0  0  0  0  0  0  0  0  0  0  0  0
    4.8664   -1.7182    0.3560 H   0  0  0  0  0  0  0  0  0  0  0  0
    2.4518   -2.2365    0.5131 H   0  0  0  0  0  0  0  0  0  0  0  0
  1  2  2  0
  2  3  1  0
  3  4  2  0
  4  5  1  0
  5  6  2  0
  4  7  1  0
  7  8  1  0
  8  9  2  0
  9 10  1  0
 10 11  2  0
 11 12  1  0
 12 13  2  0
 13 14  1  0
 14 15  2  0
 15 16  1  0
  6  1  1  0
 16  7  2  0
 15 10  1  0
  1 17  1  0
  2 18  1  0
  3 19  1  0
  5 20  1  0
  6 21  1  0
  8 22  1  0
  9 23  1  0
 11 24  1  0
 12 25  1  0
 13 26  1  0
 14 27  1  0
M  END
>  <coordinate_phase>  (1) 
MMFF94_after_optimization_status_retained

>  <molecule_id>  (1) 
phenylquinoline

>  <seed>  (1) 
20260928

>  <conformer_id>  (1) 
0

>  <optimization_status>  (1) 
0

>  <energy_kcal_mol>  (1) 
59.31796690731434

>  <sasa_A2>  (1) 
420.53206861518066

>  <sasa_orientation_sd_A2>  (1) 
1.6431727390414133

>  <sasa_orientation_range_A2>  (1) 
8.45750338872574

>  <sasa_first_half_vs_all_abs_delta_A2>  (1) 
0.5665962763407606

>  <mass_weighted_Rg_A>  (1) 
3.2076986483664807

>  <unweighted_Rg_A>  (1) 
3.698091174941128

$$$$
phenylquinoline_20260929_1
     RDKit          3D

 27 29  0  0  0  0  0  0  0  0999 V2000
   -4.6041    0.7489    0.1913 C   0  0  0  0  0  0  0  0  0  0  0  0
   -3.6026    1.7057    0.2962 C   0  0  0  0  0  0  0  0  0  0  0  0
   -2.2595    1.3269    0.1920 C   0  0  0  0  0  0  0  0  0  0  0  0
   -1.8714   -0.0132   -0.0196 C   0  0  0  0  0  0  0  0  0  0  0  0
   -2.9137   -0.9558   -0.1209 C   0  0  0  0  0  0  0  0  0  0  0  0
   -4.2604   -0.5818   -0.0172 C   0  0  0  0  0  0  0  0  0  0  0  0
   -0.4306   -0.3764   -0.1251 C   0  0  0  0  0  0  0  0  0  0  0  0
    0.0326   -1.6737   -0.3330 C   0  0  0  0  0  0  0  0  0  0  0  0
    1.4041   -1.9101   -0.4173 C   0  0  0  0  0  0  0  0  0  0  0  0
    2.3019   -0.8483   -0.2932 C   0  0  0  0  0  0  0  0  0  0  0  0
    3.6936   -1.0369   -0.3712 C   0  0  0  0  0  0  0  0  0  0  0  0
    4.5577    0.0483   -0.2424 C   0  0  0  0  0  0  0  0  0  0  0  0
    4.0355    1.3199   -0.0361 C   0  0  0  0  0  0  0  0  0  0  0  0
    2.6508    1.4994    0.0403 C   0  0  0  0  0  0  0  0  0  0  0  0
    1.7672    0.4353   -0.0847 C   0  0  0  0  0  0  0  0  0  0  0  0
    0.4434    0.6595   -0.0039 N   0  0  0  0  0  0  0  0  0  0  0  0
   -5.6479    1.0392    0.2717 H   0  0  0  0  0  0  0  0  0  0  0  0
   -3.8576    2.7495    0.4593 H   0  0  0  0  0  0  0  0  0  0  0  0
   -1.5004    2.1036    0.2791 H   0  0  0  0  0  0  0  0  0  0  0  0
   -2.7078   -2.0093   -0.2836 H   0  0  0  0  0  0  0  0  0  0  0  0
   -5.0392   -1.3358   -0.1003 H   0  0  0  0  0  0  0  0  0  0  0  0
   -0.6410   -2.5155   -0.4328 H   0  0  0  0  0  0  0  0  0  0  0  0
    1.7609   -2.9238   -0.5796 H   0  0  0  0  0  0  0  0  0  0  0  0
    4.1083   -2.0291   -0.5324 H   0  0  0  0  0  0  0  0  0  0  0  0
    5.6330   -0.0983   -0.3028 H   0  0  0  0  0  0  0  0  0  0  0  0
    4.6986    2.1750    0.0660 H   0  0  0  0  0  0  0  0  0  0  0  0
    2.2487    2.4968    0.2018 H   0  0  0  0  0  0  0  0  0  0  0  0
  1  2  2  0
  2  3  1  0
  3  4  2  0
  4  5  1  0
  5  6  2  0
  4  7  1  0
  7  8  1  0
  8  9  2  0
  9 10  1  0
 10 11  2  0
 11 12  1  0
 12 13  2  0
 13 14  1  0
 14 15  2  0
 15 16  1  0
  6  1  1  0
 16  7  2  0
 15 10  1  0
  1 17  1  0
  2 18  1  0
  3 19  1  0
  5 20  1  0
  6 21  1  0
  8 22  1  0
  9 23  1  0
 11 24  1  0
 12 25  1  0
 13 26  1  0
 14 27  1  0
M  END
>  <coordinate_phase>  (2) 
MMFF94_after_optimization_status_retained

>  <molecule_id>  (2) 
phenylquinoline

>  <seed>  (2) 
20260929

>  <conformer_id>  (2) 
1

>  <optimization_status>  (2) 
0

>  <energy_kcal_mol>  (2) 
59.31796698197837

>  <sasa_A2>  (2) 
419.60917405414847

>  <sasa_orientation_sd_A2>  (2) 
3.0763367653830342

>  <sasa_orientation_range_A2>  (2) 
14.36675165636774

>  <sasa_first_half_vs_all_abs_delta_A2>  (2) 
0.9553752533443003

>  <mass_weighted_Rg_A>  (2) 
3.207699681265371

>  <unweighted_Rg_A>  (2) 
3.698091854318751

$$$$
phenylquinoline_20260930_2
     RDKit          3D

 27 29  0  0  0  0  0  0  0  0999 V2000
   -4.5596   -0.6401    0.7875 C   0  0  0  0  0  0  0  0  0  0  0  0
   -3.5195   -1.4372    1.2482 C   0  0  0  0  0  0  0  0  0  0  0  0
   -2.1963   -1.1164    0.9249 C   0  0  0  0  0  0  0  0  0  0  0  0
   -1.8670    0.0054    0.1346 C   0  0  0  0  0  0  0  0  0  0  0  0
   -2.9473    0.7905   -0.3147 C   0  0  0  0  0  0  0  0  0  0  0  0
   -4.2743    0.4737    0.0062 C   0  0  0  0  0  0  0  0  0  0  0  0
   -0.4457    0.3134   -0.1877 C   0  0  0  0  0  0  0  0  0  0  0  0
   -0.0398    1.3997   -0.9598 C   0  0  0  0  0  0  0  0  0  0  0  0
    1.3179    1.6015   -1.2048 C   0  0  0  0  0  0  0  0  0  0  0  0
    2.2592    0.7163   -0.6763 C   0  0  0  0  0  0  0  0  0  0  0  0
    3.6391    0.8782   -0.8958 C   0  0  0  0  0  0  0  0  0  0  0  0
    4.5478   -0.0266   -0.3513 C   0  0  0  0  0  0  0  0  0  0  0  0
    4.0818   -1.0916    0.4110 C   0  0  0  0  0  0  0  0  0  0  0  0
    2.7085   -1.2459    0.6248 C   0  0  0  0  0  0  0  0  0  0  0  0
    1.7813   -0.3587    0.0939 C   0  0  0  0  0  0  0  0  0  0  0  0
    0.4707   -0.5501    0.3281 N   0  0  0  0  0  0  0  0  0  0  0  0
   -5.5881   -0.8860    1.0364 H   0  0  0  0  0  0  0  0  0  0  0  0
   -3.7287   -2.3108    1.8598 H   0  0  0  0  0  0  0  0  0  0  0  0
   -1.4056   -1.7636    1.3032 H   0  0  0  0  0  0  0  0  0  0  0  0
   -2.7874    1.6720   -0.9278 H   0  0  0  0  0  0  0  0  0  0  0  0
   -5.0835    1.1018   -0.3576 H   0  0  0  0  0  0  0  0  0  0  0  0
   -0.7480    2.1016   -1.3819 H   0  0  0  0  0  0  0  0  0  0  0  0
    1.6300    2.4502   -1.8076 H   0  0  0  0  0  0  0  0  0  0  0  0
    4.0098    1.7091   -1.4912 H   0  0  0  0  0  0  0  0  0  0  0  0
    5.6139    0.0992   -0.5214 H   0  0  0  0  0  0  0  0  0  0  0  0
    4.7801   -1.8046    0.8415 H   0  0  0  0  0  0  0  0  0  0  0  0
    2.3506   -2.0810    1.2221 H   0  0  0  0  0  0  0  0  0  0  0  0
  1  2  2  0
  2  3  1  0
  3  4  2  0
  4  5  1  0
  5  6  2  0
  4  7  1  0
  7  8  1  0
  8  9  2  0
  9 10  1  0
 10 11  2  0
 11 12  1  0
 12 13  2  0
 13 14  1  0
 14 15  2  0
 15 16  1  0
  6  1  1  0
 16  7  2  0
 15 10  1  0
  1 17  1  0
  2 18  1  0
  3 19  1  0
  5 20  1  0
  6 21  1  0
  8 22  1  0
  9 23  1  0
 11 24  1  0
 12 25  1  0
 13 26  1  0
 14 27  1  0
M  END
>  <coordinate_phase>  (3) 
MMFF94_after_optimization_status_retained

>  <molecule_id>  (3) 
phenylquinoline

>  <seed>  (3) 
20260930

>  <conformer_id>  (3) 
2

>  <optimization_status>  (3) 
0

>  <energy_kcal_mol>  (3) 
59.31796709323576

>  <sasa_A2>  (3) 
420.2672874529644

>  <sasa_orientation_sd_A2>  (3) 
2.54591836324195

>  <sasa_orientation_range_A2>  (3) 
14.017772717914

>  <sasa_first_half_vs_all_abs_delta_A2>  (3) 
0.6537591691044895

>  <mass_weighted_Rg_A>  (3) 
3.207698088775252

>  <unweighted_Rg_A>  (3) 
3.6980906146691646

$$$$
