target_20260928_0
     RDKit          3D

 30 32  0  0  0  0  0  0  0  0999 V2000
   -5.7790    0.2541    0.6053 C   0  0  0  0  0  0  0  0  0  0  0  0
   -4.5800   -0.3217    1.1070 O   0  0  0  0  0  0  0  0  0  0  0  0
   -3.4156    0.0122    0.4671 C   0  0  0  0  0  0  0  0  0  0  0  0
   -3.3024    0.8674   -0.6294 C   0  0  0  0  0  0  0  0  0  0  0  0
   -2.0567    1.1427   -1.2109 C   0  0  0  0  0  0  0  0  0  0  0  0
   -0.9302    0.5291   -0.6542 C   0  0  0  0  0  0  0  0  0  0  0  0
    0.3966    0.6121   -1.0072 N   0  0  0  0  0  0  0  0  0  0  0  0
    1.1797   -0.1672   -0.1833 C   0  0  0  0  0  0  0  0  0  0  0  0
    0.3180   -0.7512    0.7299 C   0  0  0  0  0  0  0  0  0  0  0  0
   -1.0073   -0.3267    0.4398 C   0  0  0  0  0  0  0  0  0  0  0  0
   -2.2693   -0.5880    1.0065 C   0  0  0  0  0  0  0  0  0  0  0  0
    2.6338   -0.2625   -0.3194 C   0  0  0  0  0  0  0  0  0  0  0  0
    3.2458   -0.2556   -1.5807 C   0  0  0  0  0  0  0  0  0  0  0  0
    4.6357   -0.3448   -1.6991 C   0  0  0  0  0  0  0  0  0  0  0  0
    5.4290   -0.4430   -0.5582 C   0  0  0  0  0  0  0  0  0  0  0  0
    4.8337   -0.4561    0.7009 C   0  0  0  0  0  0  0  0  0  0  0  0
    3.4441   -0.3685    0.8190 C   0  0  0  0  0  0  0  0  0  0  0  0
   -5.9665   -0.0604   -0.4267 H   0  0  0  0  0  0  0  0  0  0  0  0
   -5.7585    1.3456    0.6898 H   0  0  0  0  0  0  0  0  0  0  0  0
   -6.6076   -0.1112    1.2197 H   0  0  0  0  0  0  0  0  0  0  0  0
   -4.1732    1.3459   -1.0660 H   0  0  0  0  0  0  0  0  0  0  0  0
   -1.9776    1.8095   -2.0633 H   0  0  0  0  0  0  0  0  0  0  0  0
    0.7507    1.1872   -1.7573 H   0  0  0  0  0  0  0  0  0  0  0  0
    0.6082   -1.4273    1.5236 H   0  0  0  0  0  0  0  0  0  0  0  0
   -2.3570   -1.2529    1.8607 H   0  0  0  0  0  0  0  0  0  0  0  0
    2.6492   -0.2039   -2.4876 H   0  0  0  0  0  0  0  0  0  0  0  0
    5.0977   -0.3448   -2.6830 H   0  0  0  0  0  0  0  0  0  0  0  0
    6.5096   -0.5138   -0.6501 H   0  0  0  0  0  0  0  0  0  0  0  0
    5.4490   -0.5339    1.5935 H   0  0  0  0  0  0  0  0  0  0  0  0
    2.9999   -0.3722    1.8117 H   0  0  0  0  0  0  0  0  0  0  0  0
  1  2  1  0
  2  3  1  0
  3  4  2  0
  4  5  1  0
  5  6  2  0
  6  7  1  0
  7  8  1  0
  8  9  2  0
  9 10  1  0
 10 11  2  0
  8 12  1  0
 12 13  2  0
 13 14  1  0
 14 15  2  0
 15 16  1  0
 16 17  2  0
 11  3  1  0
 10  6  1  0
 17 12  1  0
  1 18  1  0
  1 19  1  0
  1 20  1  0
  4 21  1  0
  5 22  1  0
  7 23  1  0
  9 24  1  0
 11 25  1  0
 13 26  1  0
 14 27  1  0
 15 28  1  0
 16 29  1  0
 17 30  1  0
M  END
>  <coordinate_phase>  (1) 
MMFF94_after_optimization_status_retained

>  <molecule_id>  (1) 
target

>  <seed>  (1) 
20260928

>  <conformer_id>  (1) 
0

>  <optimization_status>  (1) 
0

>  <energy_kcal_mol>  (1) 
32.56589274864027

>  <sasa_A2>  (1) 
455.53558409805447

>  <sasa_orientation_sd_A2>  (1) 
3.0341294755315293

>  <sasa_orientation_range_A2>  (1) 
11.355094444662484

>  <sasa_first_half_vs_all_abs_delta_A2>  (1) 
0.8832486329769154

>  <mass_weighted_Rg_A>  (1) 
3.6294963461171776

>  <unweighted_Rg_A>  (1) 
4.141514024239807

$$$$
target_20260928_1
     RDKit          3D

 30 32  0  0  0  0  0  0  0  0999 V2000
    5.3013    1.2083   -0.4153 C   0  0  0  0  0  0  0  0  0  0  0  0
    4.9074   -0.1407   -0.1994 O   0  0  0  0  0  0  0  0  0  0  0  0
    3.5620   -0.3862   -0.1174 C   0  0  0  0  0  0  0  0  0  0  0  0
    3.2318   -1.7257    0.0995 C   0  0  0  0  0  0  0  0  0  0  0  0
    1.9022   -2.1478    0.2085 C   0  0  0  0  0  0  0  0  0  0  0  0
    0.9095   -1.1712    0.0923 C   0  0  0  0  0  0  0  0  0  0  0  0
   -0.4600   -1.2831    0.1541 N   0  0  0  0  0  0  0  0  0  0  0  0
   -1.0666   -0.0567   -0.0093 C   0  0  0  0  0  0  0  0  0  0  0  0
   -0.0442    0.8585   -0.1951 C   0  0  0  0  0  0  0  0  0  0  0  0
    1.1996    0.1720   -0.1263 C   0  0  0  0  0  0  0  0  0  0  0  0
    2.5487    0.5732   -0.2326 C   0  0  0  0  0  0  0  0  0  0  0  0
   -2.5189    0.1236    0.0009 C   0  0  0  0  0  0  0  0  0  0  0  0
   -3.1205    1.0601   -0.8503 C   0  0  0  0  0  0  0  0  0  0  0  0
   -4.5066    1.2375   -0.8513 C   0  0  0  0  0  0  0  0  0  0  0  0
   -5.3069    0.4827    0.0030 C   0  0  0  0  0  0  0  0  0  0  0  0
   -4.7223   -0.4474    0.8594 C   0  0  0  0  0  0  0  0  0  0  0  0
   -3.3359   -0.6259    0.8590 C   0  0  0  0  0  0  0  0  0  0  0  0
    4.9817    1.8505    0.4120 H   0  0  0  0  0  0  0  0  0  0  0  0
    4.9261    1.5807   -1.3742 H   0  0  0  0  0  0  0  0  0  0  0  0
    6.3946    1.2351   -0.4534 H   0  0  0  0  0  0  0  0  0  0  0  0
    4.0288   -2.4614    0.1862 H   0  0  0  0  0  0  0  0  0  0  0  0
    1.6618   -3.1920    0.3767 H   0  0  0  0  0  0  0  0  0  0  0  0
   -0.9536   -2.1545    0.2803 H   0  0  0  0  0  0  0  0  0  0  0  0
   -0.1756    1.9210   -0.3533 H   0  0  0  0  0  0  0  0  0  0  0  0
    2.7621    1.6211   -0.4022 H   0  0  0  0  0  0  0  0  0  0  0  0
   -2.5146    1.6532   -1.5313 H   0  0  0  0  0  0  0  0  0  0  0  0
   -4.9590    1.9648   -1.5203 H   0  0  0  0  0  0  0  0  0  0  0  0
   -6.3848    0.6224    0.0040 H   0  0  0  0  0  0  0  0  0  0  0  0
   -5.3443   -1.0304    1.5337 H   0  0  0  0  0  0  0  0  0  0  0  0
   -2.9038   -1.3414    1.5536 H   0  0  0  0  0  0  0  0  0  0  0  0
  1  2  1  0
  2  3  1  0
  3  4  2  0
  4  5  1  0
  5  6  2  0
  6  7  1  0
  7  8  1  0
  8  9  2  0
  9 10  1  0
 10 11  2  0
  8 12  1  0
 12 13  2  0
 13 14  1  0
 14 15  2  0
 15 16  1  0
 16 17  2  0
 11  3  1  0
 10  6  1  0
 17 12  1  0
  1 18  1  0
  1 19  1  0
  1 20  1  0
  4 21  1  0
  5 22  1  0
  7 23  1  0
  9 24  1  0
 11 25  1  0
 13 26  1  0
 14 27  1  0
 15 28  1  0
 16 29  1  0
 17 30  1  0
M  END
>  <coordinate_phase>  (2) 
MMFF94_after_optimization_status_retained

>  <molecule_id>  (2) 
target

>  <seed>  (2) 
20260928

>  <conformer_id>  (2) 
1

>  <optimization_status>  (2) 
0

>  <energy_kcal_mol>  (2) 
32.21464906560709

>  <sasa_A2>  (2) 
455.64204933299976

>  <sasa_orientation_sd_A2>  (2) 
1.8889447137294166

>  <sasa_orientation_range_A2>  (2) 
8.889333141962936

>  <sasa_first_half_vs_all_abs_delta_A2>  (2) 
0.182271285201125

>  <mass_weighted_Rg_A>  (2) 
3.5852566626708655

>  <unweighted_Rg_A>  (2) 
4.041499154830855

$$$$
target_20260929_2
     RDKit          3D

 30 32  0  0  0  0  0  0  0  0999 V2000
    5.7920    0.0292   -0.6920 C   0  0  0  0  0  0  0  0  0  0  0  0
    4.5678    0.5014   -1.2390 O   0  0  0  0  0  0  0  0  0  0  0  0
    3.4173    0.1437   -0.5870 C   0  0  0  0  0  0  0  0  0  0  0  0
    3.3408   -0.6435    0.5623 C   0  0  0  0  0  0  0  0  0  0  0  0
    2.1064   -0.9514    1.1516 C   0  0  0  0  0  0  0  0  0  0  0  0
    0.9531   -0.4409    0.5477 C   0  0  0  0  0  0  0  0  0  0  0  0
   -0.3707   -0.5766    0.8959 N   0  0  0  0  0  0  0  0  0  0  0  0
   -1.1876    0.1013    0.0170 C   0  0  0  0  0  0  0  0  0  0  0  0
   -0.3505    0.6732   -0.9263 C   0  0  0  0  0  0  0  0  0  0  0  0
    0.9935    0.3451   -0.5993 C   0  0  0  0  0  0  0  0  0  0  0  0
    2.2448    0.6409   -1.1729 C   0  0  0  0  0  0  0  0  0  0  0  0
   -2.6462    0.1218    0.1360 C   0  0  0  0  0  0  0  0  0  0  0  0
   -3.4487    0.1071   -1.0127 C   0  0  0  0  0  0  0  0  0  0  0  0
   -4.8422    0.1223   -0.9107 C   0  0  0  0  0  0  0  0  0  0  0  0
   -5.4495    0.1570    0.3423 C   0  0  0  0  0  0  0  0  0  0  0  0
   -4.6646    0.1787    1.4929 C   0  0  0  0  0  0  0  0  0  0  0  0
   -3.2706    0.1618    1.3907 C   0  0  0  0  0  0  0  0  0  0  0  0
    5.8344   -1.0649   -0.7049 H   0  0  0  0  0  0  0  0  0  0  0  0
    5.9500    0.4202    0.3186 H   0  0  0  0  0  0  0  0  0  0  0  0
    6.6053    0.4006   -1.3229 H   0  0  0  0  0  0  0  0  0  0  0  0
    4.2325   -1.0420    1.0356 H   0  0  0  0  0  0  0  0  0  0  0  0
    2.0559   -1.5649    2.0452 H   0  0  0  0  0  0  0  0  0  0  0  0
   -0.6998   -1.1211    1.6795 H   0  0  0  0  0  0  0  0  0  0  0  0
   -0.6699    1.2785   -1.7646 H   0  0  0  0  0  0  0  0  0  0  0  0
    2.3040    1.2528   -2.0681 H   0  0  0  0  0  0  0  0  0  0  0  0
   -2.9946    0.0717   -2.0002 H   0  0  0  0  0  0  0  0  0  0  0  0
   -5.4511    0.1067   -1.8108 H   0  0  0  0  0  0  0  0  0  0  0  0
   -6.5334    0.1716    0.4215 H   0  0  0  0  0  0  0  0  0  0  0  0
   -5.1366    0.2161    2.4713 H   0  0  0  0  0  0  0  0  0  0  0  0
   -2.6820    0.2034    2.3032 H   0  0  0  0  0  0  0  0  0  0  0  0
  1  2  1  0
  2  3  1  0
  3  4  2  0
  4  5  1  0
  5  6  2  0
  6  7  1  0
  7  8  1  0
  8  9  2  0
  9 10  1  0
 10 11  2  0
  8 12  1  0
 12 13  2  0
 13 14  1  0
 14 15  2  0
 15 16  1  0
 16 17  2  0
 11  3  1  0
 10  6  1  0
 17 12  1  0
  1 18  1  0
  1 19  1  0
  1 20  1  0
  4 21  1  0
  5 22  1  0
  7 23  1  0
  9 24  1  0
 11 25  1  0
 13 26  1  0
 14 27  1  0
 15 28  1  0
 16 29  1  0
 17 30  1  0
M  END
>  <coordinate_phase>  (3) 
MMFF94_after_optimization_status_retained

>  <molecule_id>  (3) 
target

>  <seed>  (3) 
20260929

>  <conformer_id>  (3) 
2

>  <optimization_status>  (3) 
0

>  <energy_kcal_mol>  (3) 
32.565892765678655

>  <sasa_A2>  (3) 
455.0902533982632

>  <sasa_orientation_sd_A2>  (3) 
2.5931016062637373

>  <sasa_orientation_range_A2>  (3) 
12.515245026430193

>  <sasa_first_half_vs_all_abs_delta_A2>  (3) 
0.24681391388116936

>  <mass_weighted_Rg_A>  (3) 
3.6294968784662984

>  <unweighted_Rg_A>  (3) 
4.141514521331735

$$$$
target_20260929_3
     RDKit          3D

 30 32  0  0  0  0  0  0  0  0999 V2000
    5.1734    1.7085    0.0167 C   0  0  0  0  0  0  0  0  0  0  0  0
    4.8957    0.3346   -0.2214 O   0  0  0  0  0  0  0  0  0  0  0  0
    3.5776   -0.0394   -0.2170 C   0  0  0  0  0  0  0  0  0  0  0  0
    3.3627   -1.3993   -0.4513 C   0  0  0  0  0  0  0  0  0  0  0  0
    2.0754   -1.9469   -0.4797 C   0  0  0  0  0  0  0  0  0  0  0  0
    1.0047   -1.0756   -0.2621 C   0  0  0  0  0  0  0  0  0  0  0  0
   -0.3487   -1.3194   -0.2327 N   0  0  0  0  0  0  0  0  0  0  0  0
   -1.0561   -0.1643    0.0203 C   0  0  0  0  0  0  0  0  0  0  0  0
   -0.1167    0.8459    0.1404 C   0  0  0  0  0  0  0  0  0  0  0  0
    1.1794    0.2848   -0.0279 C   0  0  0  0  0  0  0  0  0  0  0  0
    2.4879    0.8135   -0.0040 C   0  0  0  0  0  0  0  0  0  0  0  0
   -2.5170   -0.1234    0.0978 C   0  0  0  0  0  0  0  0  0  0  0  0
   -3.2197    0.9847   -0.3942 C   0  0  0  0  0  0  0  0  0  0  0  0
   -4.6148    1.0323   -0.3286 C   0  0  0  0  0  0  0  0  0  0  0  0
   -5.3231   -0.0268    0.2341 C   0  0  0  0  0  0  0  0  0  0  0  0
   -4.6376   -1.1320    0.7331 C   0  0  0  0  0  0  0  0  0  0  0  0
   -3.2422   -1.1802    0.6660 C   0  0  0  0  0  0  0  0  0  0  0  0
    6.2592    1.8406   -0.0168 H   0  0  0  0  0  0  0  0  0  0  0  0
    4.7375    2.3407   -0.7639 H   0  0  0  0  0  0  0  0  0  0  0  0
    4.8319    2.0142    1.0112 H   0  0  0  0  0  0  0  0  0  0  0  0
    4.2182   -2.0511   -0.6163 H   0  0  0  0  0  0  0  0  0  0  0  0
    1.9247   -3.0052   -0.6633 H   0  0  0  0  0  0  0  0  0  0  0  0
   -0.7668   -2.2232   -0.3976 H   0  0  0  0  0  0  0  0  0  0  0  0
   -0.3376    1.8860    0.3416 H   0  0  0  0  0  0  0  0  0  0  0  0
    2.6114    1.8734    0.1796 H   0  0  0  0  0  0  0  0  0  0  0  0
   -2.6864    1.8181   -0.8453 H   0  0  0  0  0  0  0  0  0  0  0  0
   -5.1460    1.8967   -0.7183 H   0  0  0  0  0  0  0  0  0  0  0  0
   -6.4080    0.0112    0.2873 H   0  0  0  0  0  0  0  0  0  0  0  0
   -5.1880   -1.9551    1.1815 H   0  0  0  0  0  0  0  0  0  0  0  0
   -2.7313   -2.0436    1.0837 H   0  0  0  0  0  0  0  0  0  0  0  0
  1  2  1  0
  2  3  1  0
  3  4  2  0
  4  5  1  0
  5  6  2  0
  6  7  1  0
  7  8  1  0
  8  9  2  0
  9 10  1  0
 10 11  2  0
  8 12  1  0
 12 13  2  0
 13 14  1  0
 14 15  2  0
 15 16  1  0
 16 17  2  0
 11  3  1  0
 10  6  1  0
 17 12  1  0
  1 18  1  0
  1 19  1  0
  1 20  1  0
  4 21  1  0
  5 22  1  0
  7 23  1  0
  9 24  1  0
 11 25  1  0
 13 26  1  0
 14 27  1  0
 15 28  1  0
 16 29  1  0
 17 30  1  0
M  END
>  <coordinate_phase>  (4) 
MMFF94_after_optimization_status_retained

>  <molecule_id>  (4) 
target

>  <seed>  (4) 
20260929

>  <conformer_id>  (4) 
3

>  <optimization_status>  (4) 
0

>  <energy_kcal_mol>  (4) 
32.21464905763539

>  <sasa_A2>  (4) 
455.051050819228

>  <sasa_orientation_sd_A2>  (4) 
2.5950778166172737

>  <sasa_orientation_range_A2>  (4) 
10.332461776523303

>  <sasa_first_half_vs_all_abs_delta_A2>  (4) 
0.13734782352423736

>  <mass_weighted_Rg_A>  (4) 
3.5852567437014637

>  <unweighted_Rg_A>  (4) 
4.041499358680041

$$$$
target_20260930_4
     RDKit          3D

 30 32  0  0  0  0  0  0  0  0999 V2000
    5.3794    0.7102    0.5508 C   0  0  0  0  0  0  0  0  0  0  0  0
    4.8877   -0.4520   -0.1042 O   0  0  0  0  0  0  0  0  0  0  0  0
    3.5267   -0.5801   -0.1969 C   0  0  0  0  0  0  0  0  0  0  0  0
    3.0989   -1.7409   -0.8448 C   0  0  0  0  0  0  0  0  0  0  0  0
    1.7409   -2.0262   -1.0239 C   0  0  0  0  0  0  0  0  0  0  0  0
    0.8215   -1.0994   -0.5253 C   0  0  0  0  0  0  0  0  0  0  0  0
   -0.5537   -1.1077   -0.5525 N   0  0  0  0  0  0  0  0  0  0  0  0
   -1.0696    0.0118    0.0634 C   0  0  0  0  0  0  0  0  0  0  0  0
    0.0186    0.7593    0.4810 C   0  0  0  0  0  0  0  0  0  0  0  0
    1.2097    0.0688    0.1234 C   0  0  0  0  0  0  0  0  0  0  0  0
    2.5856    0.3342    0.2918 C   0  0  0  0  0  0  0  0  0  0  0  0
   -2.5054    0.2726    0.1733 C   0  0  0  0  0  0  0  0  0  0  0  0
   -2.9959    1.5810    0.0675 C   0  0  0  0  0  0  0  0  0  0  0  0
   -4.3653    1.8407    0.1671 C   0  0  0  0  0  0  0  0  0  0  0  0
   -5.2601    0.7943    0.3782 C   0  0  0  0  0  0  0  0  0  0  0  0
   -4.7864   -0.5108    0.4919 C   0  0  0  0  0  0  0  0  0  0  0  0
   -3.4167   -0.7705    0.3905 C   0  0  0  0  0  0  0  0  0  0  0  0
    5.0843    1.6194    0.0166 H   0  0  0  0  0  0  0  0  0  0  0  0
    5.0553    0.7416    1.5963 H   0  0  0  0  0  0  0  0  0  0  0  0
    6.4726    0.6606    0.5432 H   0  0  0  0  0  0  0  0  0  0  0  0
    3.8406   -2.4428   -1.2208 H   0  0  0  0  0  0  0  0  0  0  0  0
    1.4244   -2.9320   -1.5296 H   0  0  0  0  0  0  0  0  0  0  0  0
   -1.1089   -1.8298   -0.9875 H   0  0  0  0  0  0  0  0  0  0  0  0
   -0.0347    1.7054    1.0036 H   0  0  0  0  0  0  0  0  0  0  0  0
    2.8756    1.2461    0.7986 H   0  0  0  0  0  0  0  0  0  0  0  0
   -2.3152    2.4112   -0.1062 H   0  0  0  0  0  0  0  0  0  0  0  0
   -4.7310    2.8603    0.0787 H   0  0  0  0  0  0  0  0  0  0  0  0
   -6.3250    0.9965    0.4581 H   0  0  0  0  0  0  0  0  0  0  0  0
   -5.4821   -1.3274    0.6664 H   0  0  0  0  0  0  0  0  0  0  0  0
   -3.0719   -1.7946    0.5062 H   0  0  0  0  0  0  0  0  0  0  0  0
  1  2  1  0
  2  3  1  0
  3  4  2  0
  4  5  1  0
  5  6  2  0
  6  7  1  0
  7  8  1  0
  8  9  2  0
  9 10  1  0
 10 11  2  0
  8 12  1  0
 12 13  2  0
 13 14  1  0
 14 15  2  0
 15 16  1  0
 16 17  2  0
 11  3  1  0
 10  6  1  0
 17 12  1  0
  1 18  1  0
  1 19  1  0
  1 20  1  0
  4 21  1  0
  5 22  1  0
  7 23  1  0
  9 24  1  0
 11 25  1  0
 13 26  1  0
 14 27  1  0
 15 28  1  0
 16 29  1  0
 17 30  1  0
M  END
>  <coordinate_phase>  (5) 
MMFF94_after_optimization_status_retained

>  <molecule_id>  (5) 
target

>  <seed>  (5) 
20260930

>  <conformer_id>  (5) 
4

>  <optimization_status>  (5) 
0

>  <energy_kcal_mol>  (5) 
32.21464906258572

>  <sasa_A2>  (5) 
455.5234712262077

>  <sasa_orientation_sd_A2>  (5) 
2.271717354817884

>  <sasa_orientation_range_A2>  (5) 
10.567987744499646

>  <sasa_first_half_vs_all_abs_delta_A2>  (5) 
0.6844747077076931

>  <mass_weighted_Rg_A>  (5) 
3.585256718039667

>  <unweighted_Rg_A>  (5) 
4.041499294085383

$$$$
target_20260930_5
     RDKit          3D

 30 32  0  0  0  0  0  0  0  0999 V2000
    5.8322    0.1076    0.1413 C   0  0  0  0  0  0  0  0  0  0  0  0
    4.6688    0.9241    0.1189 O   0  0  0  0  0  0  0  0  0  0  0  0
    3.4588    0.2817    0.1294 C   0  0  0  0  0  0  0  0  0  0  0  0
    3.2680   -1.1001    0.1574 C   0  0  0  0  0  0  0  0  0  0  0  0
    1.9808   -1.6560    0.1658 C   0  0  0  0  0  0  0  0  0  0  0  0
    0.8935   -0.7768    0.1462 C   0  0  0  0  0  0  0  0  0  0  0  0
   -0.4584   -1.0302    0.1470 N   0  0  0  0  0  0  0  0  0  0  0  0
   -1.1836    0.1415    0.1260 C   0  0  0  0  0  0  0  0  0  0  0  0
   -0.2563    1.1696    0.0970 C   0  0  0  0  0  0  0  0  0  0  0  0
    1.0483    0.6053    0.1160 C   0  0  0  0  0  0  0  0  0  0  0  0
    2.3507    1.1400    0.1082 C   0  0  0  0  0  0  0  0  0  0  0  0
   -2.6466    0.1753    0.1102 C   0  0  0  0  0  0  0  0  0  0  0  0
   -3.4011   -0.7612    0.8308 C   0  0  0  0  0  0  0  0  0  0  0  0
   -4.7982   -0.7213    0.8068 C   0  0  0  0  0  0  0  0  0  0  0  0
   -5.4563    0.2558    0.0633 C   0  0  0  0  0  0  0  0  0  0  0  0
   -4.7190    1.1954   -0.6533 C   0  0  0  0  0  0  0  0  0  0  0  0
   -3.3224    1.1563   -0.6278 C   0  0  0  0  0  0  0  0  0  0  0  0
    5.8784   -0.4892    1.0582 H   0  0  0  0  0  0  0  0  0  0  0  0
    5.8857   -0.5281   -0.7487 H   0  0  0  0  0  0  0  0  0  0  0  0
    6.7044    0.7683    0.1306 H   0  0  0  0  0  0  0  0  0  0  0  0
    4.1080   -1.7872    0.1733 H   0  0  0  0  0  0  0  0  0  0  0  0
    1.8413   -2.7319    0.1871 H   0  0  0  0  0  0  0  0  0  0  0  0
   -0.8639   -1.9545    0.1405 H   0  0  0  0  0  0  0  0  0  0  0  0
   -0.4904    2.2260    0.0756 H   0  0  0  0  0  0  0  0  0  0  0  0
    2.4990    2.2156    0.0854 H   0  0  0  0  0  0  0  0  0  0  0  0
   -2.9132   -1.5191    1.4379 H   0  0  0  0  0  0  0  0  0  0  0  0
   -5.3718   -1.4491    1.3749 H   0  0  0  0  0  0  0  0  0  0  0  0
   -6.5425    0.2879    0.0456 H   0  0  0  0  0  0  0  0  0  0  0  0
   -5.2286    1.9602   -1.2335 H   0  0  0  0  0  0  0  0  0  0  0  0
   -2.7657    1.8942   -1.2008 H   0  0  0  0  0  0  0  0  0  0  0  0
  1  2  1  0
  2  3  1  0
  3  4  2  0
  4  5  1  0
  5  6  2  0
  6  7  1  0
  7  8  1  0
  8  9  2  0
  9 10  1  0
 10 11  2  0
  8 12  1  0
 12 13  2  0
 13 14  1  0
 14 15  2  0
 15 16  1  0
 16 17  2  0
 11  3  1  0
 10  6  1  0
 17 12  1  0
  1 18  1  0
  1 19  1  0
  1 20  1  0
  4 21  1  0
  5 22  1  0
  7 23  1  0
  9 24  1  0
 11 25  1  0
 13 26  1  0
 14 27  1  0
 15 28  1  0
 16 29  1  0
 17 30  1  0
M  END
>  <coordinate_phase>  (6) 
MMFF94_after_optimization_status_retained

>  <molecule_id>  (6) 
target

>  <seed>  (6) 
20260930

>  <conformer_id>  (6) 
5

>  <optimization_status>  (6) 
0

>  <energy_kcal_mol>  (6) 
32.56589274719879

>  <sasa_A2>  (6) 
455.6160320252158

>  <sasa_orientation_sd_A2>  (6) 
3.082170519020147

>  <sasa_orientation_range_A2>  (6) 
16.36709524756725

>  <sasa_first_half_vs_all_abs_delta_A2>  (6) 
0.25886486897985606

>  <mass_weighted_Rg_A>  (6) 
3.6294962669725357

>  <unweighted_Rg_A>  (6) 
4.1415137015316885

$$$$
