target_20260928_0
     RDKit          3D

 30 32  0  0  0  0  0  0  0  0999 V2000
   -5.7572    0.3305    0.6580 C   0  0  0  0  0  0  0  0  0  0  0  0
   -4.5332   -0.0681    1.2661 O   0  0  0  0  0  0  0  0  0  0  0  0
   -3.3505    0.0938    0.5563 C   0  0  0  0  0  0  0  0  0  0  0  0
   -3.2869    0.6208   -0.7110 C   0  0  0  0  0  0  0  0  0  0  0  0
   -2.0697    0.7645   -1.3873 C   0  0  0  0  0  0  0  0  0  0  0  0
   -0.8983    0.3633   -0.7587 C   0  0  0  0  0  0  0  0  0  0  0  0
    0.3801    0.3919   -1.1787 N   0  0  0  0  0  0  0  0  0  0  0  0
    1.1626   -0.1104   -0.2030 C   0  0  0  0  0  0  0  0  0  0  0  0
    0.3608   -0.4665    0.8626 C   0  0  0  0  0  0  0  0  0  0  0  0
   -0.9540   -0.1686    0.5183 C   0  0  0  0  0  0  0  0  0  0  0  0
   -2.1721   -0.3033    1.1734 C   0  0  0  0  0  0  0  0  0  0  0  0
    2.6139   -0.2322   -0.3140 C   0  0  0  0  0  0  0  0  0  0  0  0
    3.2246    0.1851   -1.4722 C   0  0  0  0  0  0  0  0  0  0  0  0
    4.6131    0.0686   -1.5786 C   0  0  0  0  0  0  0  0  0  0  0  0
    5.3482   -0.4575   -0.5334 C   0  0  0  0  0  0  0  0  0  0  0  0
    4.7373   -0.8846    0.6480 C   0  0  0  0  0  0  0  0  0  0  0  0
    3.3555   -0.7559    0.7236 C   0  0  0  0  0  0  0  0  0  0  0  0
   -5.7661   -0.0570   -0.3904 H   0  0  0  0  0  0  0  0  0  0  0  0
   -5.7444    1.4334    0.5846 H   0  0  0  0  0  0  0  0  0  0  0  0
   -6.6307   -0.0684    1.2041 H   0  0  0  0  0  0  0  0  0  0  0  0
   -4.1775    0.9317   -1.2030 H   0  0  0  0  0  0  0  0  0  0  0  0
   -2.0523    1.1904   -2.4022 H   0  0  0  0  0  0  0  0  0  0  0  0
    0.6738    0.7441   -2.0950 H   0  0  0  0  0  0  0  0  0  0  0  0
    0.6976   -0.9039    1.8072 H   0  0  0  0  0  0  0  0  0  0  0  0
   -2.1623   -0.7264    2.1742 H   0  0  0  0  0  0  0  0  0  0  0  0
    2.7015    0.6038   -2.3211 H   0  0  0  0  0  0  0  0  0  0  0  0
    5.0907    0.3995   -2.4949 H   0  0  0  0  0  0  0  0  0  0  0  0
    6.4292   -0.5370   -0.6428 H   0  0  0  0  0  0  0  0  0  0  0  0
    5.3010   -1.2957    1.4676 H   0  0  0  0  0  0  0  0  0  0  0  0
    2.8655   -1.0857    1.6406 H   0  0  0  0  0  0  0  0  0  0  0  0
  1  2  1  0
  2  3  1  0
  3  4  2  0
  4  5  1  0
  5  6  2  0
  6  7  1  0
  7  8  1  0
  8  9  2  0
  9 10  1  0
 10 11  2  0
  8 12  1  0
 12 13  2  0
 13 14  1  0
 14 15  2  0
 15 16  1  0
 16 17  2  0
 11  3  1  0
 10  6  1  0
 17 12  1  0
  1 18  1  0
  1 19  1  0
  1 20  1  0
  4 21  1  0
  5 22  1  0
  7 23  1  0
  9 24  1  0
 11 25  1  0
 13 26  1  0
 14 27  1  0
 15 28  1  0
 16 29  1  0
 17 30  1  0
M  END
>  <coordinate_phase>  (1) 
ETKDG_before_MMFF

>  <molecule_id>  (1) 
target

>  <seed>  (1) 
20260928

>  <conformer_id>  (1) 
0

$$$$
target_20260928_1
     RDKit          3D

 30 32  0  0  0  0  0  0  0  0999 V2000
    5.3100    1.1771   -0.7643 C   0  0  0  0  0  0  0  0  0  0  0  0
    4.8016   -0.0108   -0.2420 O   0  0  0  0  0  0  0  0  0  0  0  0
    3.4909   -0.3471   -0.0501 C   0  0  0  0  0  0  0  0  0  0  0  0
    3.1990   -1.5927    0.4884 C   0  0  0  0  0  0  0  0  0  0  0  0
    1.8879   -1.9989    0.7099 C   0  0  0  0  0  0  0  0  0  0  0  0
    0.8689   -1.1182    0.3752 C   0  0  0  0  0  0  0  0  0  0  0  0
   -0.4615   -1.2701    0.4897 N   0  0  0  0  0  0  0  0  0  0  0  0
   -1.0778   -0.1428    0.0354 C   0  0  0  0  0  0  0  0  0  0  0  0
   -0.0766    0.7337   -0.3735 C   0  0  0  0  0  0  0  0  0  0  0  0
    1.1579    0.1319   -0.1652 C   0  0  0  0  0  0  0  0  0  0  0  0
    2.4695    0.5310   -0.3836 C   0  0  0  0  0  0  0  0  0  0  0  0
   -2.5217    0.1212   -0.0220 C   0  0  0  0  0  0  0  0  0  0  0  0
   -3.0299    1.3099   -0.5063 C   0  0  0  0  0  0  0  0  0  0  0  0
   -4.3947    1.4845   -0.5289 C   0  0  0  0  0  0  0  0  0  0  0  0
   -5.2584    0.4897   -0.0750 C   0  0  0  0  0  0  0  0  0  0  0  0
   -4.7573   -0.7202    0.4186 C   0  0  0  0  0  0  0  0  0  0  0  0
   -3.3737   -0.8701    0.4300 C   0  0  0  0  0  0  0  0  0  0  0  0
    5.2049    2.0010   -0.0318 H   0  0  0  0  0  0  0  0  0  0  0  0
    4.8964    1.4311   -1.7666 H   0  0  0  0  0  0  0  0  0  0  0  0
    6.4126    1.0137   -0.9424 H   0  0  0  0  0  0  0  0  0  0  0  0
    4.0204   -2.2521    0.7368 H   0  0  0  0  0  0  0  0  0  0  0  0
    1.6489   -2.9697    1.1301 H   0  0  0  0  0  0  0  0  0  0  0  0
   -0.9439   -2.1237    0.8695 H   0  0  0  0  0  0  0  0  0  0  0  0
   -0.2462    1.7370   -0.7922 H   0  0  0  0  0  0  0  0  0  0  0  0
    2.6818    1.4956   -0.8002 H   0  0  0  0  0  0  0  0  0  0  0  0
   -2.3288    2.0585   -0.8498 H   0  0  0  0  0  0  0  0  0  0  0  0
   -4.8242    2.4057   -0.9029 H   0  0  0  0  0  0  0  0  0  0  0  0
   -6.3397    0.6205   -0.0897 H   0  0  0  0  0  0  0  0  0  0  0  0
   -5.4199   -1.4999    0.7738 H   0  0  0  0  0  0  0  0  0  0  0  0
   -2.9962   -1.8256    0.8204 H   0  0  0  0  0  0  0  0  0  0  0  0
  1  2  1  0
  2  3  1  0
  3  4  2  0
  4  5  1  0
  5  6  2  0
  6  7  1  0
  7  8  1  0
  8  9  2  0
  9 10  1  0
 10 11  2  0
  8 12  1  0
 12 13  2  0
 13 14  1  0
 14 15  2  0
 15 16  1  0
 16 17  2  0
 11  3  1  0
 10  6  1  0
 17 12  1  0
  1 18  1  0
  1 19  1  0
  1 20  1  0
  4 21  1  0
  5 22  1  0
  7 23  1  0
  9 24  1  0
 11 25  1  0
 13 26  1  0
 14 27  1  0
 15 28  1  0
 16 29  1  0
 17 30  1  0
M  END
>  <coordinate_phase>  (2) 
ETKDG_before_MMFF

>  <molecule_id>  (2) 
target

>  <seed>  (2) 
20260928

>  <conformer_id>  (2) 
1

$$$$
target_20260929_2
     RDKit          3D

 30 32  0  0  0  0  0  0  0  0999 V2000
    5.7958   -0.0262   -0.7980 C   0  0  0  0  0  0  0  0  0  0  0  0
    4.5274    0.2301   -1.3524 O   0  0  0  0  0  0  0  0  0  0  0  0
    3.3722    0.0447   -0.6396 C   0  0  0  0  0  0  0  0  0  0  0  0
    3.3136   -0.4006    0.6641 C   0  0  0  0  0  0  0  0  0  0  0  0
    2.1082   -0.5697    1.3371 C   0  0  0  0  0  0  0  0  0  0  0  0
    0.9232   -0.2822    0.6795 C   0  0  0  0  0  0  0  0  0  0  0  0
   -0.3550   -0.3592    1.0960 N   0  0  0  0  0  0  0  0  0  0  0  0
   -1.1878    0.0288    0.0929 C   0  0  0  0  0  0  0  0  0  0  0  0
   -0.3708    0.3528   -0.9722 C   0  0  0  0  0  0  0  0  0  0  0  0
    0.9504    0.1650   -0.6250 C   0  0  0  0  0  0  0  0  0  0  0  0
    2.1676    0.3286   -1.2838 C   0  0  0  0  0  0  0  0  0  0  0  0
   -2.6521    0.0962    0.1174 C   0  0  0  0  0  0  0  0  0  0  0  0
   -3.3823    0.5137   -0.9865 C   0  0  0  0  0  0  0  0  0  0  0  0
   -4.7752    0.5502   -0.8825 C   0  0  0  0  0  0  0  0  0  0  0  0
   -5.4056    0.1772    0.2970 C   0  0  0  0  0  0  0  0  0  0  0  0
   -4.6801   -0.2383    1.3959 C   0  0  0  0  0  0  0  0  0  0  0  0
   -3.3122   -0.2679    1.2757 C   0  0  0  0  0  0  0  0  0  0  0  0
    6.0200   -1.1301   -0.8485 H   0  0  0  0  0  0  0  0  0  0  0  0
    5.7875    0.3073    0.2602 H   0  0  0  0  0  0  0  0  0  0  0  0
    6.6000    0.5478   -1.3331 H   0  0  0  0  0  0  0  0  0  0  0  0
    4.2211   -0.6240    1.1772 H   0  0  0  0  0  0  0  0  0  0  0  0
    2.0944   -0.9153    2.3443 H   0  0  0  0  0  0  0  0  0  0  0  0
   -0.6443   -0.6653    2.0294 H   0  0  0  0  0  0  0  0  0  0  0  0
   -0.6833    0.7042   -1.9470 H   0  0  0  0  0  0  0  0  0  0  0  0
    2.1581    0.6822   -2.3106 H   0  0  0  0  0  0  0  0  0  0  0  0
   -2.8698    0.8020   -1.9019 H   0  0  0  0  0  0  0  0  0  0  0  0
   -5.3657    0.8754   -1.7392 H   0  0  0  0  0  0  0  0  0  0  0  0
   -6.4974    0.1983    0.4004 H   0  0  0  0  0  0  0  0  0  0  0  0
   -5.1420   -0.5355    2.3299 H   0  0  0  0  0  0  0  0  0  0  0  0
   -2.7161   -0.5903    2.1234 H   0  0  0  0  0  0  0  0  0  0  0  0
  1  2  1  0
  2  3  1  0
  3  4  2  0
  4  5  1  0
  5  6  2  0
  6  7  1  0
  7  8  1  0
  8  9  2  0
  9 10  1  0
 10 11  2  0
  8 12  1  0
 12 13  2  0
 13 14  1  0
 14 15  2  0
 15 16  1  0
 16 17  2  0
 11  3  1  0
 10  6  1  0
 17 12  1  0
  1 18  1  0
  1 19  1  0
  1 20  1  0
  4 21  1  0
  5 22  1  0
  7 23  1  0
  9 24  1  0
 11 25  1  0
 13 26  1  0
 14 27  1  0
 15 28  1  0
 16 29  1  0
 17 30  1  0
M  END
>  <coordinate_phase>  (3) 
ETKDG_before_MMFF

>  <molecule_id>  (3) 
target

>  <seed>  (3) 
20260929

>  <conformer_id>  (3) 
2

$$$$
target_20260929_3
     RDKit          3D

 30 32  0  0  0  0  0  0  0  0999 V2000
    5.1156    1.8922   -0.2778 C   0  0  0  0  0  0  0  0  0  0  0  0
    4.8038    0.4997   -0.1850 O   0  0  0  0  0  0  0  0  0  0  0  0
    3.5306   -0.0057   -0.1189 C   0  0  0  0  0  0  0  0  0  0  0  0
    3.3922   -1.3815   -0.0320 C   0  0  0  0  0  0  0  0  0  0  0  0
    2.1482   -1.9900    0.0395 C   0  0  0  0  0  0  0  0  0  0  0  0
    1.0001   -1.2156    0.0249 C   0  0  0  0  0  0  0  0  0  0  0  0
   -0.3234   -1.5314    0.0810 N   0  0  0  0  0  0  0  0  0  0  0  0
   -1.0303   -0.3785    0.0311 C   0  0  0  0  0  0  0  0  0  0  0  0
   -0.1404    0.6755   -0.0574 C   0  0  0  0  0  0  0  0  0  0  0  0
    1.1401    0.1634   -0.0623 C   0  0  0  0  0  0  0  0  0  0  0  0
    2.3939    0.7654   -0.1337 C   0  0  0  0  0  0  0  0  0  0  0  0
   -2.4812   -0.2134    0.0618 C   0  0  0  0  0  0  0  0  0  0  0  0
   -3.0777    1.0313    0.0033 C   0  0  0  0  0  0  0  0  0  0  0  0
   -4.4462    1.2109    0.0307 C   0  0  0  0  0  0  0  0  0  0  0  0
   -5.2777    0.1147    0.1202 C   0  0  0  0  0  0  0  0  0  0  0  0
   -4.6886   -1.1329    0.1790 C   0  0  0  0  0  0  0  0  0  0  0  0
   -3.3154   -1.3157    0.1517 C   0  0  0  0  0  0  0  0  0  0  0  0
    6.0893    2.0392   -0.8052 H   0  0  0  0  0  0  0  0  0  0  0  0
    4.3423    2.4047   -0.8729 H   0  0  0  0  0  0  0  0  0  0  0  0
    5.1086    2.3823    0.7383 H   0  0  0  0  0  0  0  0  0  0  0  0
    4.2550   -2.0544   -0.0155 H   0  0  0  0  0  0  0  0  0  0  0  0
    2.0415   -3.0810    0.1084 H   0  0  0  0  0  0  0  0  0  0  0  0
   -0.7070   -2.4995    0.1502 H   0  0  0  0  0  0  0  0  0  0  0  0
   -0.3826    1.7253   -0.1140 H   0  0  0  0  0  0  0  0  0  0  0  0
    2.4770    1.8419   -0.2010 H   0  0  0  0  0  0  0  0  0  0  0  0
   -2.4735    1.9355   -0.0682 H   0  0  0  0  0  0  0  0  0  0  0  0
   -4.8720    2.2199   -0.0183 H   0  0  0  0  0  0  0  0  0  0  0  0
   -6.3613    0.1928    0.1458 H   0  0  0  0  0  0  0  0  0  0  0  0
   -5.3723   -1.9938    0.2501 H   0  0  0  0  0  0  0  0  0  0  0  0
   -2.8889   -2.3013    0.1992 H   0  0  0  0  0  0  0  0  0  0  0  0
  1  2  1  0
  2  3  1  0
  3  4  2  0
  4  5  1  0
  5  6  2  0
  6  7  1  0
  7  8  1  0
  8  9  2  0
  9 10  1  0
 10 11  2  0
  8 12  1  0
 12 13  2  0
 13 14  1  0
 14 15  2  0
 15 16  1  0
 16 17  2  0
 11  3  1  0
 10  6  1  0
 17 12  1  0
  1 18  1  0
  1 19  1  0
  1 20  1  0
  4 21  1  0
  5 22  1  0
  7 23  1  0
  9 24  1  0
 11 25  1  0
 13 26  1  0
 14 27  1  0
 15 28  1  0
 16 29  1  0
 17 30  1  0
M  END
>  <coordinate_phase>  (4) 
ETKDG_before_MMFF

>  <molecule_id>  (4) 
target

>  <seed>  (4) 
20260929

>  <conformer_id>  (4) 
3

$$$$
target_20260930_4
     RDKit          3D

 30 32  0  0  0  0  0  0  0  0999 V2000
    5.2362    1.0390    0.2962 C   0  0  0  0  0  0  0  0  0  0  0  0
    4.8469   -0.2757   -0.0520 O   0  0  0  0  0  0  0  0  0  0  0  0
    3.4985   -0.5998   -0.1282 C   0  0  0  0  0  0  0  0  0  0  0  0
    3.1330   -1.8974   -0.4720 C   0  0  0  0  0  0  0  0  0  0  0  0
    1.8053   -2.2565   -0.5577 C   0  0  0  0  0  0  0  0  0  0  0  0
    0.7813   -1.3636   -0.3113 C   0  0  0  0  0  0  0  0  0  0  0  0
   -0.5655   -1.4115   -0.3137 N   0  0  0  0  0  0  0  0  0  0  0  0
   -1.0666   -0.2050    0.0124 C   0  0  0  0  0  0  0  0  0  0  0  0
    0.0095    0.6510    0.2328 C   0  0  0  0  0  0  0  0  0  0  0  0
    1.1669   -0.0735    0.0303 C   0  0  0  0  0  0  0  0  0  0  0  0
    2.4925    0.2914    0.1176 C   0  0  0  0  0  0  0  0  0  0  0  0
   -2.4642    0.2026    0.1321 C   0  0  0  0  0  0  0  0  0  0  0  0
   -2.8219    1.5077    0.4835 C   0  0  0  0  0  0  0  0  0  0  0  0
   -4.1501    1.8877    0.5952 C   0  0  0  0  0  0  0  0  0  0  0  0
   -5.1450    0.9563    0.3541 C   0  0  0  0  0  0  0  0  0  0  0  0
   -4.7884   -0.3272    0.0084 C   0  0  0  0  0  0  0  0  0  0  0  0
   -3.4628   -0.7280   -0.1088 C   0  0  0  0  0  0  0  0  0  0  0  0
    4.5982    1.7444   -0.2910 H   0  0  0  0  0  0  0  0  0  0  0  0
    4.9785    1.2047    1.3599 H   0  0  0  0  0  0  0  0  0  0  0  0
    6.3152    1.1930    0.0778 H   0  0  0  0  0  0  0  0  0  0  0  0
    3.8683   -2.6641   -0.6825 H   0  0  0  0  0  0  0  0  0  0  0  0
    1.5301   -3.2636   -0.8247 H   0  0  0  0  0  0  0  0  0  0  0  0
   -1.1228   -2.2640   -0.5372 H   0  0  0  0  0  0  0  0  0  0  0  0
   -0.0528    1.7050    0.5149 H   0  0  0  0  0  0  0  0  0  0  0  0
    2.7242    1.3043    0.3864 H   0  0  0  0  0  0  0  0  0  0  0  0
   -2.0203    2.2309    0.6705 H   0  0  0  0  0  0  0  0  0  0  0  0
   -4.3544    2.9145    0.8711 H   0  0  0  0  0  0  0  0  0  0  0  0
   -6.1657    1.2775    0.4477 H   0  0  0  0  0  0  0  0  0  0  0  0
   -5.5966   -1.0234   -0.1713 H   0  0  0  0  0  0  0  0  0  0  0  0
   -3.2076   -1.7566   -0.3855 H   0  0  0  0  0  0  0  0  0  0  0  0
  1  2  1  0
  2  3  1  0
  3  4  2  0
  4  5  1  0
  5  6  2  0
  6  7  1  0
  7  8  1  0
  8  9  2  0
  9 10  1  0
 10 11  2  0
  8 12  1  0
 12 13  2  0
 13 14  1  0
 14 15  2  0
 15 16  1  0
 16 17  2  0
 11  3  1  0
 10  6  1  0
 17 12  1  0
  1 18  1  0
  1 19  1  0
  1 20  1  0
  4 21  1  0
  5 22  1  0
  7 23  1  0
  9 24  1  0
 11 25  1  0
 13 26  1  0
 14 27  1  0
 15 28  1  0
 16 29  1  0
 17 30  1  0
M  END
>  <coordinate_phase>  (5) 
ETKDG_before_MMFF

>  <molecule_id>  (5) 
target

>  <seed>  (5) 
20260930

>  <conformer_id>  (5) 
4

$$$$
target_20260930_5
     RDKit          3D

 30 32  0  0  0  0  0  0  0  0999 V2000
    5.8087    0.1724    0.0230 C   0  0  0  0  0  0  0  0  0  0  0  0
    4.6061    0.8819   -0.1874 O   0  0  0  0  0  0  0  0  0  0  0  0
    3.3768    0.2687    0.0106 C   0  0  0  0  0  0  0  0  0  0  0  0
    3.2390   -1.0424    0.4164 C   0  0  0  0  0  0  0  0  0  0  0  0
    1.9698   -1.5989    0.5972 C   0  0  0  0  0  0  0  0  0  0  0  0
    0.8409   -0.8110    0.3621 C   0  0  0  0  0  0  0  0  0  0  0  0
   -0.4919   -1.0688    0.4511 N   0  0  0  0  0  0  0  0  0  0  0  0
   -1.1602    0.0565    0.1085 C   0  0  0  0  0  0  0  0  0  0  0  0
   -0.2814    1.0597   -0.2075 C   0  0  0  0  0  0  0  0  0  0  0  0
    0.9891    0.5046   -0.0452 C   0  0  0  0  0  0  0  0  0  0  0  0
    2.2390    1.0441   -0.2206 C   0  0  0  0  0  0  0  0  0  0  0  0
   -2.6148    0.1464    0.0911 C   0  0  0  0  0  0  0  0  0  0  0  0
   -3.3849   -0.9320    0.4295 C   0  0  0  0  0  0  0  0  0  0  0  0
   -4.7718   -0.8772    0.4225 C   0  0  0  0  0  0  0  0  0  0  0  0
   -5.3586    0.3355    0.0523 C   0  0  0  0  0  0  0  0  0  0  0  0
   -4.6096    1.4378   -0.2934 C   0  0  0  0  0  0  0  0  0  0  0  0
   -3.2353    1.3270   -0.2689 C   0  0  0  0  0  0  0  0  0  0  0  0
    5.7545   -0.4760    0.9252 H   0  0  0  0  0  0  0  0  0  0  0  0
    6.0276   -0.5030   -0.8347 H   0  0  0  0  0  0  0  0  0  0  0  0
    6.6436    0.9183    0.1291 H   0  0  0  0  0  0  0  0  0  0  0  0
    4.1129   -1.6412    0.5951 H   0  0  0  0  0  0  0  0  0  0  0  0
    1.8348   -2.6254    0.9151 H   0  0  0  0  0  0  0  0  0  0  0  0
   -0.8977   -2.0000    0.7415 H   0  0  0  0  0  0  0  0  0  0  0  0
   -0.5190    2.0659   -0.5164 H   0  0  0  0  0  0  0  0  0  0  0  0
    2.3292    2.0717   -0.5385 H   0  0  0  0  0  0  0  0  0  0  0  0
   -2.9417   -1.8616    0.7134 H   0  0  0  0  0  0  0  0  0  0  0  0
   -5.3757   -1.7418    0.6937 H   0  0  0  0  0  0  0  0  0  0  0  0
   -6.4490    0.3677    0.0501 H   0  0  0  0  0  0  0  0  0  0  0  0
   -5.0911    2.3587   -0.5743 H   0  0  0  0  0  0  0  0  0  0  0  0
   -2.5892    2.1621   -0.5314 H   0  0  0  0  0  0  0  0  0  0  0  0
  1  2  1  0
  2  3  1  0
  3  4  2  0
  4  5  1  0
  5  6  2  0
  6  7  1  0
  7  8  1  0
  8  9  2  0
  9 10  1  0
 10 11  2  0
  8 12  1  0
 12 13  2  0
 13 14  1  0
 14 15  2  0
 15 16  1  0
 16 17  2  0
 11  3  1  0
 10  6  1  0
 17 12  1  0
  1 18  1  0
  1 19  1  0
  1 20  1  0
  4 21  1  0
  5 22  1  0
  7 23  1  0
  9 24  1  0
 11 25  1  0
 13 26  1  0
 14 27  1  0
 15 28  1  0
 16 29  1  0
 17 30  1  0
M  END
>  <coordinate_phase>  (6) 
ETKDG_before_MMFF

>  <molecule_id>  (6) 
target

>  <seed>  (6) 
20260930

>  <conformer_id>  (6) 
5

$$$$
