tryptophol_20260928_0
     RDKit          3D

 23 24  0  0  0  0  0  0  0  0999 V2000
    3.8214   -1.4214   -0.6165 O   0  0  0  0  0  0  0  0  0  0  0  0
    2.6690   -0.5859   -0.6916 C   0  0  0  0  0  0  0  0  0  0  0  0
    1.8581   -0.6789    0.5984 C   0  0  0  0  0  0  0  0  0  0  0  0
    0.6591    0.2109    0.5894 C   0  0  0  0  0  0  0  0  0  0  0  0
    0.5606    1.4614    1.1683 C   0  0  0  0  0  0  0  0  0  0  0  0
   -0.6988    1.9451    0.9362 N   0  0  0  0  0  0  0  0  0  0  0  0
   -1.4327    1.0354    0.2123 C   0  0  0  0  0  0  0  0  0  0  0  0
   -2.7528    1.1044   -0.2493 C   0  0  0  0  0  0  0  0  0  0  0  0
   -3.2447    0.0127   -0.9707 C   0  0  0  0  0  0  0  0  0  0  0  0
   -2.4468   -1.1014   -1.2184 C   0  0  0  0  0  0  0  0  0  0  0  0
   -1.1292   -1.1536   -0.7490 C   0  0  0  0  0  0  0  0  0  0  0  0
   -0.6079   -0.0655   -0.0190 C   0  0  0  0  0  0  0  0  0  0  0  0
    4.3904   -1.0673    0.0882 H   0  0  0  0  0  0  0  0  0  0  0  0
    2.0752   -0.9119   -1.5519 H   0  0  0  0  0  0  0  0  0  0  0  0
    2.9995    0.4406   -0.8847 H   0  0  0  0  0  0  0  0  0  0  0  0
    1.5540   -1.7199    0.7653 H   0  0  0  0  0  0  0  0  0  0  0  0
    2.5027   -0.4288    1.4510 H   0  0  0  0  0  0  0  0  0  0  0  0
    1.2787    2.0469    1.7270 H   0  0  0  0  0  0  0  0  0  0  0  0
   -1.0469    2.8406    1.2491 H   0  0  0  0  0  0  0  0  0  0  0  0
   -3.3774    1.9705   -0.0576 H   0  0  0  0  0  0  0  0  0  0  0  0
   -4.2662    0.0347   -1.3433 H   0  0  0  0  0  0  0  0  0  0  0  0
   -2.8487   -1.9402   -1.7813 H   0  0  0  0  0  0  0  0  0  0  0  0
   -0.5166   -2.0281   -0.9482 H   0  0  0  0  0  0  0  0  0  0  0  0
  1  2  1  0
  2  3  1  0
  3  4  1  0
  4  5  2  0
  5  6  1  0
  6  7  1  0
  7  8  2  0
  8  9  1  0
  9 10  2  0
 10 11  1  0
 11 12  2  0
 12  4  1  0
 12  7  1  0
  1 13  1  0
  2 14  1  0
  2 15  1  0
  3 16  1  0
  3 17  1  0
  5 18  1  0
  6 19  1  0
  8 20  1  0
  9 21  1  0
 10 22  1  0
 11 23  1  0
M  END
>  <coordinate_phase>  (1) 
MMFF94_after_optimization_status_retained

>  <molecule_id>  (1) 
tryptophol

>  <seed>  (1) 
20260928

>  <conformer_id>  (1) 
0

>  <optimization_status>  (1) 
0

>  <energy_kcal_mol>  (1) 
27.05815616858552

>  <sasa_A2>  (1) 
363.1517766890786

>  <sasa_orientation_sd_A2>  (1) 
1.2732385283225505

>  <sasa_orientation_range_A2>  (1) 
4.687900274581466

>  <sasa_first_half_vs_all_abs_delta_A2>  (1) 
0.47456552355055237

>  <mass_weighted_Rg_A>  (1) 
2.6136619315374183

>  <unweighted_Rg_A>  (1) 
2.9644542630347837

$$$$
tryptophol_20260928_1
     RDKit          3D

 23 24  0  0  0  0  0  0  0  0999 V2000
    2.7120    1.2726    0.4714 O   0  0  0  0  0  0  0  0  0  0  0  0
    2.8531   -0.1396    0.3365 C   0  0  0  0  0  0  0  0  0  0  0  0
    1.7411   -0.8684    1.0905 C   0  0  0  0  0  0  0  0  0  0  0  0
    0.4711   -0.9798    0.2989 C   0  0  0  0  0  0  0  0  0  0  0  0
    0.0417   -2.0898   -0.4044 C   0  0  0  0  0  0  0  0  0  0  0  0
   -1.1658   -1.7960   -0.9781 N   0  0  0  0  0  0  0  0  0  0  0  0
   -1.5419   -0.5111   -0.6665 C   0  0  0  0  0  0  0  0  0  0  0  0
   -2.6885    0.2067   -1.0288 C   0  0  0  0  0  0  0  0  0  0  0  0
   -2.8075    1.5181   -0.5593 C   0  0  0  0  0  0  0  0  0  0  0  0
   -1.8181    2.0861    0.2391 C   0  0  0  0  0  0  0  0  0  0  0  0
   -0.6791    1.3532    0.5918 C   0  0  0  0  0  0  0  0  0  0  0  0
   -0.5337    0.0278    0.1333 C   0  0  0  0  0  0  0  0  0  0  0  0
    3.3152    1.6797   -0.1733 H   0  0  0  0  0  0  0  0  0  0  0  0
    2.8584   -0.3971   -0.7281 H   0  0  0  0  0  0  0  0  0  0  0  0
    3.8245   -0.4061    0.7653 H   0  0  0  0  0  0  0  0  0  0  0  0
    1.5315   -0.3649    2.0418 H   0  0  0  0  0  0  0  0  0  0  0  0
    2.0859   -1.8824    1.3290 H   0  0  0  0  0  0  0  0  0  0  0  0
    0.4911   -3.0644   -0.5400 H   0  0  0  0  0  0  0  0  0  0  0  0
   -1.7107   -2.4283   -1.5469 H   0  0  0  0  0  0  0  0  0  0  0  0
   -3.4607   -0.2328   -1.6511 H   0  0  0  0  0  0  0  0  0  0  0  0
   -3.6855    2.1031   -0.8228 H   0  0  0  0  0  0  0  0  0  0  0  0
   -1.9262    3.1082    0.5925 H   0  0  0  0  0  0  0  0  0  0  0  0
    0.0922    1.8052    1.2093 H   0  0  0  0  0  0  0  0  0  0  0  0
  1  2  1  0
  2  3  1  0
  3  4  1  0
  4  5  2  0
  5  6  1  0
  6  7  1  0
  7  8  2  0
  8  9  1  0
  9 10  2  0
 10 11  1  0
 11 12  2  0
 12  4  1  0
 12  7  1  0
  1 13  1  0
  2 14  1  0
  2 15  1  0
  3 16  1  0
  3 17  1  0
  5 18  1  0
  6 19  1  0
  8 20  1  0
  9 21  1  0
 10 22  1  0
 11 23  1  0
M  END
>  <coordinate_phase>  (2) 
MMFF94_after_optimization_status_retained

>  <molecule_id>  (2) 
tryptophol

>  <seed>  (2) 
20260928

>  <conformer_id>  (2) 
1

>  <optimization_status>  (2) 
0

>  <energy_kcal_mol>  (2) 
27.45910612282451

>  <sasa_A2>  (2) 
359.3215751004962

>  <sasa_orientation_sd_A2>  (2) 
1.9088616562579026

>  <sasa_orientation_range_A2>  (2) 
10.322524904799593

>  <sasa_first_half_vs_all_abs_delta_A2>  (2) 
0.19097317285428517

>  <mass_weighted_Rg_A>  (2) 
2.4501988168139945

>  <unweighted_Rg_A>  (2) 
2.902614188941444

$$$$
tryptophol_20260928_2
     RDKit          3D

 23 24  0  0  0  0  0  0  0  0999 V2000
   -4.0425    0.6422    0.3934 O   0  0  0  0  0  0  0  0  0  0  0  0
   -2.7172    0.2016    0.6779 C   0  0  0  0  0  0  0  0  0  0  0  0
   -2.0417   -0.3120   -0.5910 C   0  0  0  0  0  0  0  0  0  0  0  0
   -0.6387   -0.7635   -0.3522 C   0  0  0  0  0  0  0  0  0  0  0  0
   -0.2263   -2.0602   -0.1138 C   0  0  0  0  0  0  0  0  0  0  0  0
    1.1315   -2.0562    0.0569 N   0  0  0  0  0  0  0  0  0  0  0  0
    1.6227   -0.7777   -0.0638 C   0  0  0  0  0  0  0  0  0  0  0  0
    2.9363   -0.3035    0.0358 C   0  0  0  0  0  0  0  0  0  0  0  0
    3.1449    1.0680   -0.1353 C   0  0  0  0  0  0  0  0  0  0  0  0
    2.0810    1.9279   -0.3959 C   0  0  0  0  0  0  0  0  0  0  0  0
    0.7738    1.4366   -0.4924 C   0  0  0  0  0  0  0  0  0  0  0  0
    0.5353    0.0569   -0.3234 C   0  0  0  0  0  0  0  0  0  0  0  0
   -3.9725    1.4036   -0.2075 H   0  0  0  0  0  0  0  0  0  0  0  0
   -2.7813   -0.5901    1.4318 H   0  0  0  0  0  0  0  0  0  0  0  0
   -2.1643    1.0379    1.1194 H   0  0  0  0  0  0  0  0  0  0  0  0
   -2.6367   -1.1336   -1.0100 H   0  0  0  0  0  0  0  0  0  0  0  0
   -2.0566    0.4722   -1.3585 H   0  0  0  0  0  0  0  0  0  0  0  0
   -0.7856   -2.9846   -0.0515 H   0  0  0  0  0  0  0  0  0  0  0  0
    1.6978   -2.8715    0.2452 H   0  0  0  0  0  0  0  0  0  0  0  0
    3.7674   -0.9710    0.2382 H   0  0  0  0  0  0  0  0  0  0  0  0
    4.1537    1.4680   -0.0641 H   0  0  0  0  0  0  0  0  0  0  0  0
    2.2657    2.9913   -0.5264 H   0  0  0  0  0  0  0  0  0  0  0  0
   -0.0463    2.1177   -0.6970 H   0  0  0  0  0  0  0  0  0  0  0  0
  1  2  1  0
  2  3  1  0
  3  4  1  0
  4  5  2  0
  5  6  1  0
  6  7  1  0
  7  8  2  0
  8  9  1  0
  9 10  2  0
 10 11  1  0
 11 12  2  0
 12  4  1  0
 12  7  1  0
  1 13  1  0
  2 14  1  0
  2 15  1  0
  3 16  1  0
  3 17  1  0
  5 18  1  0
  6 19  1  0
  8 20  1  0
  9 21  1  0
 10 22  1  0
 11 23  1  0
M  END
>  <coordinate_phase>  (3) 
MMFF94_after_optimization_status_retained

>  <molecule_id>  (3) 
tryptophol

>  <seed>  (3) 
20260928

>  <conformer_id>  (3) 
2

>  <optimization_status>  (3) 
0

>  <energy_kcal_mol>  (3) 
27.121223661071518

>  <sasa_A2>  (3) 
363.090630027685

>  <sasa_orientation_sd_A2>  (3) 
1.792768964941987

>  <sasa_orientation_range_A2>  (3) 
8.593623478485085

>  <sasa_first_half_vs_all_abs_delta_A2>  (3) 
0.197124518284852

>  <mass_weighted_Rg_A>  (3) 
2.612363202336589

>  <unweighted_Rg_A>  (3) 
2.9473317628831976

$$$$
tryptophol_20260928_3
     RDKit          3D

 23 24  0  0  0  0  0  0  0  0999 V2000
    3.1720   -0.3695    1.4265 O   0  0  0  0  0  0  0  0  0  0  0  0
    2.2771   -1.4191    1.0657 C   0  0  0  0  0  0  0  0  0  0  0  0
    1.8026   -1.2704   -0.3801 C   0  0  0  0  0  0  0  0  0  0  0  0
    0.8805   -0.1030   -0.5704 C   0  0  0  0  0  0  0  0  0  0  0  0
    1.2166    1.1261   -1.1050 C   0  0  0  0  0  0  0  0  0  0  0  0
    0.0988    1.9154   -1.1080 N   0  0  0  0  0  0  0  0  0  0  0  0
   -0.9695    1.2291   -0.5805 C   0  0  0  0  0  0  0  0  0  0  0  0
   -2.2950    1.6361   -0.3863 C   0  0  0  0  0  0  0  0  0  0  0  0
   -3.1808    0.7125    0.1756 C   0  0  0  0  0  0  0  0  0  0  0  0
   -2.7559   -0.5662    0.5268 C   0  0  0  0  0  0  0  0  0  0  0  0
   -1.4269   -0.9568    0.3252 C   0  0  0  0  0  0  0  0  0  0  0  0
   -0.5117   -0.0436   -0.2382 C   0  0  0  0  0  0  0  0  0  0  0  0
    2.6779    0.4634    1.3173 H   0  0  0  0  0  0  0  0  0  0  0  0
    1.4432   -1.4231    1.7753 H   0  0  0  0  0  0  0  0  0  0  0  0
    2.8216   -2.3617    1.1793 H   0  0  0  0  0  0  0  0  0  0  0  0
    2.6715   -1.1515   -1.0392 H   0  0  0  0  0  0  0  0  0  0  0  0
    1.2842   -2.1862   -0.6877 H   0  0  0  0  0  0  0  0  0  0  0  0
    2.1567    1.5020   -1.4877 H   0  0  0  0  0  0  0  0  0  0  0  0
    0.0560    2.8655   -1.4498 H   0  0  0  0  0  0  0  0  0  0  0  0
   -2.6300    2.6310   -0.6608 H   0  0  0  0  0  0  0  0  0  0  0  0
   -4.2177    0.9975    0.3391 H   0  0  0  0  0  0  0  0  0  0  0  0
   -3.4618   -1.2699    0.9610 H   0  0  0  0  0  0  0  0  0  0  0  0
   -1.1093   -1.9575    0.6018 H   0  0  0  0  0  0  0  0  0  0  0  0
  1  2  1  0
  2  3  1  0
  3  4  1  0
  4  5  2  0
  5  6  1  0
  6  7  1  0
  7  8  2  0
  8  9  1  0
  9 10  2  0
 10 11  1  0
 11 12  2  0
 12  4  1  0
 12  7  1  0
  1 13  1  0
  2 14  1  0
  2 15  1  0
  3 16  1  0
  3 17  1  0
  5 18  1  0
  6 19  1  0
  8 20  1  0
  9 21  1  0
 10 22  1  0
 11 23  1  0
M  END
>  <coordinate_phase>  (4) 
MMFF94_after_optimization_status_retained

>  <molecule_id>  (4) 
tryptophol

>  <seed>  (4) 
20260928

>  <conformer_id>  (4) 
3

>  <optimization_status>  (4) 
0

>  <energy_kcal_mol>  (4) 
25.001406336179485

>  <sasa_A2>  (4) 
357.6171077059439

>  <sasa_orientation_sd_A2>  (4) 
1.4836306765265255

>  <sasa_orientation_range_A2>  (4) 
7.252048571156877

>  <sasa_first_half_vs_all_abs_delta_A2>  (4) 
0.06293356218844792

>  <mass_weighted_Rg_A>  (4) 
2.4917671731985105

>  <unweighted_Rg_A>  (4) 
2.8664536324384318

$$$$
tryptophol_20260928_4
     RDKit          3D

 23 24  0  0  0  0  0  0  0  0999 V2000
    2.5407    0.0337   -1.6554 O   0  0  0  0  0  0  0  0  0  0  0  0
    2.8607   -0.1182   -0.2745 C   0  0  0  0  0  0  0  0  0  0  0  0
    1.9000   -1.0982    0.3984 C   0  0  0  0  0  0  0  0  0  0  0  0
    0.6135   -0.4566    0.8286 C   0  0  0  0  0  0  0  0  0  0  0  0
    0.2966   -0.0392    2.1079 C   0  0  0  0  0  0  0  0  0  0  0  0
   -0.9697    0.4801    2.0906 N   0  0  0  0  0  0  0  0  0  0  0  0
   -1.4953    0.4135    0.8222 C   0  0  0  0  0  0  0  0  0  0  0  0
   -2.7459    0.8205    0.3409 C   0  0  0  0  0  0  0  0  0  0  0  0
   -3.0117    0.6271   -1.0179 C   0  0  0  0  0  0  0  0  0  0  0  0
   -2.0631    0.0508   -1.8588 C   0  0  0  0  0  0  0  0  0  0  0  0
   -0.8187   -0.3507   -1.3599 C   0  0  0  0  0  0  0  0  0  0  0  0
   -0.5243   -0.1687    0.0069 C   0  0  0  0  0  0  0  0  0  0  0  0
    3.0469    0.7974   -1.9804 H   0  0  0  0  0  0  0  0  0  0  0  0
    2.8401    0.8658    0.2063 H   0  0  0  0  0  0  0  0  0  0  0  0
    3.8816   -0.5103   -0.2243 H   0  0  0  0  0  0  0  0  0  0  0  0
    2.3896   -1.5136    1.2882 H   0  0  0  0  0  0  0  0  0  0  0  0
    1.6793   -1.9374   -0.2720 H   0  0  0  0  0  0  0  0  0  0  0  0
    0.8633   -0.0731    3.0286 H   0  0  0  0  0  0  0  0  0  0  0  0
   -1.4568    0.8565    2.8914 H   0  0  0  0  0  0  0  0  0  0  0  0
   -3.4866    1.2703    0.9933 H   0  0  0  0  0  0  0  0  0  0  0  0
   -3.9732    0.9326   -1.4237 H   0  0  0  0  0  0  0  0  0  0  0  0
   -2.2862   -0.0890   -2.9133 H   0  0  0  0  0  0  0  0  0  0  0  0
   -0.0808   -0.7933   -2.0233 H   0  0  0  0  0  0  0  0  0  0  0  0
  1  2  1  0
  2  3  1  0
  3  4  1  0
  4  5  2  0
  5  6  1  0
  6  7  1  0
  7  8  2  0
  8  9  1  0
  9 10  2  0
 10 11  1  0
 11 12  2  0
 12  4  1  0
 12  7  1  0
  1 13  1  0
  2 14  1  0
  2 15  1  0
  3 16  1  0
  3 17  1  0
  5 18  1  0
  6 19  1  0
  8 20  1  0
  9 21  1  0
 10 22  1  0
 11 23  1  0
M  END
>  <coordinate_phase>  (5) 
MMFF94_after_optimization_status_retained

>  <molecule_id>  (5) 
tryptophol

>  <seed>  (5) 
20260928

>  <conformer_id>  (5) 
4

>  <optimization_status>  (5) 
0

>  <energy_kcal_mol>  (5) 
27.45910613704543

>  <sasa_A2>  (5) 
359.06068976944624

>  <sasa_orientation_sd_A2>  (5) 
1.3837692909293346

>  <sasa_orientation_range_A2>  (5) 
5.817826302705328

>  <sasa_first_half_vs_all_abs_delta_A2>  (5) 
0.1293444389912679

>  <mass_weighted_Rg_A>  (5) 
2.4501985137079085

>  <unweighted_Rg_A>  (5) 
2.902613654374907

$$$$
tryptophol_20260928_5
     RDKit          3D

 23 24  0  0  0  0  0  0  0  0999 V2000
   -4.0567    0.6533    0.2451 O   0  0  0  0  0  0  0  0  0  0  0  0
   -2.7942    0.0051    0.3770 C   0  0  0  0  0  0  0  0  0  0  0  0
   -1.9575    0.2052   -0.8841 C   0  0  0  0  0  0  0  0  0  0  0  0
   -0.6118   -0.4348   -0.7879 C   0  0  0  0  0  0  0  0  0  0  0  0
   -0.2644   -1.6838   -1.2646 C   0  0  0  0  0  0  0  0  0  0  0  0
    1.0556   -1.9029   -0.9774 N   0  0  0  0  0  0  0  0  0  0  0  0
    1.5855   -0.8191   -0.3178 C   0  0  0  0  0  0  0  0  0  0  0  0
    2.8815   -0.6036    0.1661 C   0  0  0  0  0  0  0  0  0  0  0  0
    3.1408    0.6119    0.8056 C   0  0  0  0  0  0  0  0  0  0  0  0
    2.1425    1.5715    0.9533 C   0  0  0  0  0  0  0  0  0  0  0  0
    0.8519    1.3395    0.4632 C   0  0  0  0  0  0  0  0  0  0  0  0
    0.5632    0.1211   -0.1858 C   0  0  0  0  0  0  0  0  0  0  0  0
   -3.8869    1.6084    0.1774 H   0  0  0  0  0  0  0  0  0  0  0  0
   -2.2917    0.4081    1.2630 H   0  0  0  0  0  0  0  0  0  0  0  0
   -2.9804   -1.0593    0.5550 H   0  0  0  0  0  0  0  0  0  0  0  0
   -1.8477    1.2782   -1.0860 H   0  0  0  0  0  0  0  0  0  0  0  0
   -2.5045   -0.1939   -1.7479 H   0  0  0  0  0  0  0  0  0  0  0  0
   -0.8460   -2.4343   -1.7837 H   0  0  0  0  0  0  0  0  0  0  0  0
    1.5727   -2.7384   -1.2129 H   0  0  0  0  0  0  0  0  0  0  0  0
    3.6617   -1.3490    0.0521 H   0  0  0  0  0  0  0  0  0  0  0  0
    4.1376    0.8102    1.1927 H   0  0  0  0  0  0  0  0  0  0  0  0
    2.3658    2.5106    1.4534 H   0  0  0  0  0  0  0  0  0  0  0  0
    0.0832    2.0963    0.5840 H   0  0  0  0  0  0  0  0  0  0  0  0
  1  2  1  0
  2  3  1  0
  3  4  1  0
  4  5  2  0
  5  6  1  0
  6  7  1  0
  7  8  2  0
  8  9  1  0
  9 10  2  0
 10 11  1  0
 11 12  2  0
 12  4  1  0
 12  7  1  0
  1 13  1  0
  2 14  1  0
  2 15  1  0
  3 16  1  0
  3 17  1  0
  5 18  1  0
  6 19  1  0
  8 20  1  0
  9 21  1  0
 10 22  1  0
 11 23  1  0
M  END
>  <coordinate_phase>  (6) 
MMFF94_after_optimization_status_retained

>  <molecule_id>  (6) 
tryptophol

>  <seed>  (6) 
20260928

>  <conformer_id>  (6) 
5

>  <optimization_status>  (6) 
0

>  <energy_kcal_mol>  (6) 
27.12122367304922

>  <sasa_A2>  (6) 
363.04810312206246

>  <sasa_orientation_sd_A2>  (6) 
1.1650082191628828

>  <sasa_orientation_range_A2>  (6) 
4.2570515516034675

>  <sasa_first_half_vs_all_abs_delta_A2>  (6) 
0.31596109309793974

>  <mass_weighted_Rg_A>  (6) 
2.6123646079430864

>  <unweighted_Rg_A>  (6) 
2.947333231618178

$$$$
tryptophol_20260928_6
     RDKit          3D

 23 24  0  0  0  0  0  0  0  0999 V2000
   -2.5697    1.4692    0.5961 O   0  0  0  0  0  0  0  0  0  0  0  0
   -2.9710    0.3160   -0.1392 C   0  0  0  0  0  0  0  0  0  0  0  0
   -1.9250   -0.0727   -1.1842 C   0  0  0  0  0  0  0  0  0  0  0  0
   -0.6855   -0.6539   -0.5722 C   0  0  0  0  0  0  0  0  0  0  0  0
   -0.4666   -1.9852   -0.2742 C   0  0  0  0  0  0  0  0  0  0  0  0
    0.7819   -2.1046    0.2742 N   0  0  0  0  0  0  0  0  0  0  0  0
    1.3897   -0.8735    0.3467 C   0  0  0  0  0  0  0  0  0  0  0  0
    2.6530   -0.5189    0.8352 C   0  0  0  0  0  0  0  0  0  0  0  0
    3.0136    0.8305    0.7805 C   0  0  0  0  0  0  0  0  0  0  0  0
    2.1447    1.7843    0.2565 C   0  0  0  0  0  0  0  0  0  0  0  0
    0.8858    1.4120   -0.2285 C   0  0  0  0  0  0  0  0  0  0  0  0
    0.4962    0.0572   -0.1836 C   0  0  0  0  0  0  0  0  0  0  0  0
   -1.7446    1.2322    1.0586 H   0  0  0  0  0  0  0  0  0  0  0  0
   -3.1667   -0.4973    0.5678 H   0  0  0  0  0  0  0  0  0  0  0  0
   -3.9131    0.5644   -0.6378 H   0  0  0  0  0  0  0  0  0  0  0  0
   -2.3603   -0.8113   -1.8684 H   0  0  0  0  0  0  0  0  0  0  0  0
   -1.6560    0.8048   -1.7841 H   0  0  0  0  0  0  0  0  0  0  0  0
   -1.0929   -2.8575   -0.4077 H   0  0  0  0  0  0  0  0  0  0  0  0
    1.2032   -2.9694    0.5835 H   0  0  0  0  0  0  0  0  0  0  0  0
    3.3334   -1.2594    1.2425 H   0  0  0  0  0  0  0  0  0  0  0  0
    3.9884    1.1390    1.1515 H   0  0  0  0  0  0  0  0  0  0  0  0
    2.4449    2.8287    0.2218 H   0  0  0  0  0  0  0  0  0  0  0  0
    0.2167    2.1655   -0.6351 H   0  0  0  0  0  0  0  0  0  0  0  0
  1  2  1  0
  2  3  1  0
  3  4  1  0
  4  5  2  0
  5  6  1  0
  6  7  1  0
  7  8  2  0
  8  9  1  0
  9 10  2  0
 10 11  1  0
 11 12  2  0
 12  4  1  0
 12  7  1  0
  1 13  1  0
  2 14  1  0
  2 15  1  0
  3 16  1  0
  3 17  1  0
  5 18  1  0
  6 19  1  0
  8 20  1  0
  9 21  1  0
 10 22  1  0
 11 23  1  0
M  END
>  <coordinate_phase>  (7) 
MMFF94_after_optimization_status_retained

>  <molecule_id>  (7) 
tryptophol

>  <seed>  (7) 
20260928

>  <conformer_id>  (7) 
6

>  <optimization_status>  (7) 
0

>  <energy_kcal_mol>  (7) 
24.617422465623953

>  <sasa_A2>  (7) 
355.0809797403677

>  <sasa_orientation_sd_A2>  (7) 
1.3348355835043357

>  <sasa_orientation_range_A2>  (7) 
5.3935926852507805

>  <sasa_first_half_vs_all_abs_delta_A2>  (7) 
0.05760922604480356

>  <mass_weighted_Rg_A>  (7) 
2.4359623197513924

>  <unweighted_Rg_A>  (7) 
2.848317666914311

$$$$
tryptophol_20260928_7
     RDKit          3D

 23 24  0  0  0  0  0  0  0  0999 V2000
    2.7636   -0.3001    2.1227 O   0  0  0  0  0  0  0  0  0  0  0  0
    1.9128    0.8366    1.9939 C   0  0  0  0  0  0  0  0  0  0  0  0
    1.7711    1.2602    0.5318 C   0  0  0  0  0  0  0  0  0  0  0  0
    0.9762    0.2818   -0.2807 C   0  0  0  0  0  0  0  0  0  0  0  0
    1.4856   -0.6649   -1.1489 C   0  0  0  0  0  0  0  0  0  0  0  0
    0.4391   -1.3577   -1.6941 N   0  0  0  0  0  0  0  0  0  0  0  0
   -0.7533   -0.8867   -1.1974 C   0  0  0  0  0  0  0  0  0  0  0  0
   -2.0656   -1.2933   -1.4676 C   0  0  0  0  0  0  0  0  0  0  0  0
   -3.1004   -0.6216   -0.8107 C   0  0  0  0  0  0  0  0  0  0  0  0
   -2.8310    0.4153    0.0788 C   0  0  0  0  0  0  0  0  0  0  0  0
   -1.5128    0.8094    0.3369 C   0  0  0  0  0  0  0  0  0  0  0  0
   -0.4497    0.1470   -0.3110 C   0  0  0  0  0  0  0  0  0  0  0  0
    2.3504   -1.0137    1.6030 H   0  0  0  0  0  0  0  0  0  0  0  0
    2.3683    1.6483    2.5698 H   0  0  0  0  0  0  0  0  0  0  0  0
    0.9462    0.5998    2.4505 H   0  0  0  0  0  0  0  0  0  0  0  0
    2.7671    1.3706    0.0853 H   0  0  0  0  0  0  0  0  0  0  0  0
    1.2830    2.2408    0.4838 H   0  0  0  0  0  0  0  0  0  0  0  0
    2.5052   -0.8991   -1.4270 H   0  0  0  0  0  0  0  0  0  0  0  0
    0.5225   -2.1065   -2.3676 H   0  0  0  0  0  0  0  0  0  0  0  0
   -2.2792   -2.0995   -2.1617 H   0  0  0  0  0  0  0  0  0  0  0  0
   -4.1312   -0.9132   -0.9990 H   0  0  0  0  0  0  0  0  0  0  0  0
   -3.6510    0.9257    0.5779 H   0  0  0  0  0  0  0  0  0  0  0  0
   -1.3169    1.6208    1.0312 H   0  0  0  0  0  0  0  0  0  0  0  0
  1  2  1  0
  2  3  1  0
  3  4  1  0
  4  5  2  0
  5  6  1  0
  6  7  1  0
  7  8  2  0
  8  9  1  0
  9 10  2  0
 10 11  1  0
 11 12  2  0
 12  4  1  0
 12  7  1  0
  1 13  1  0
  2 14  1  0
  2 15  1  0
  3 16  1  0
  3 17  1  0
  5 18  1  0
  6 19  1  0
  8 20  1  0
  9 21  1  0
 10 22  1  0
 11 23  1  0
M  END
>  <coordinate_phase>  (8) 
MMFF94_after_optimization_status_retained

>  <molecule_id>  (8) 
tryptophol

>  <seed>  (8) 
20260928

>  <conformer_id>  (8) 
7

>  <optimization_status>  (8) 
0

>  <energy_kcal_mol>  (8) 
25.001406338696455

>  <sasa_A2>  (8) 
356.95949088909856

>  <sasa_orientation_sd_A2>  (8) 
1.3503443811661087

>  <sasa_orientation_range_A2>  (8) 
6.230656744334794

>  <sasa_first_half_vs_all_abs_delta_A2>  (8) 
0.10422619568697655

>  <mass_weighted_Rg_A>  (8) 
2.491767569011296

>  <unweighted_Rg_A>  (8) 
2.8664539428153986

$$$$
tryptophol_20260928_8
     RDKit          3D

 23 24  0  0  0  0  0  0  0  0999 V2000
   -2.6153    1.5152    0.2475 O   0  0  0  0  0  0  0  0  0  0  0  0
   -2.8579    0.2028   -0.2536 C   0  0  0  0  0  0  0  0  0  0  0  0
   -2.0116   -0.8267    0.4949 C   0  0  0  0  0  0  0  0  0  0  0  0
   -0.6163   -0.9431   -0.0450 C   0  0  0  0  0  0  0  0  0  0  0  0
   -0.1521   -1.9212   -0.9047 C   0  0  0  0  0  0  0  0  0  0  0  0
    1.1738   -1.6856   -1.1500 N   0  0  0  0  0  0  0  0  0  0  0  0
    1.5940   -0.5688   -0.4676 C   0  0  0  0  0  0  0  0  0  0  0  0
    2.8551    0.0380   -0.4193 C   0  0  0  0  0  0  0  0  0  0  0  0
    2.9938    1.1827    0.3711 C   0  0  0  0  0  0  0  0  0  0  0  0
    1.9132    1.6978    1.0825 C   0  0  0  0  0  0  0  0  0  0  0  0
    0.6601    1.0773    1.0228 C   0  0  0  0  0  0  0  0  0  0  0  0
    0.4920   -0.0795    0.2344 C   0  0  0  0  0  0  0  0  0  0  0  0
   -3.0219    2.1368   -0.3797 H   0  0  0  0  0  0  0  0  0  0  0  0
   -3.9202   -0.0086   -0.0948 H   0  0  0  0  0  0  0  0  0  0  0  0
   -2.6559    0.1894   -1.3301 H   0  0  0  0  0  0  0  0  0  0  0  0
   -1.9670   -0.5805    1.5625 H   0  0  0  0  0  0  0  0  0  0  0  0
   -2.4953   -1.8077    0.4079 H   0  0  0  0  0  0  0  0  0  0  0  0
   -0.6522   -2.7667   -1.3576 H   0  0  0  0  0  0  0  0  0  0  0  0
    1.7665   -2.2491   -1.7428 H   0  0  0  0  0  0  0  0  0  0  0  0
    3.6987   -0.3604   -0.9728 H   0  0  0  0  0  0  0  0  0  0  0  0
    3.9599    1.6785    0.4300 H   0  0  0  0  0  0  0  0  0  0  0  0
    2.0389    2.5905    1.6895 H   0  0  0  0  0  0  0  0  0  0  0  0
   -0.1804    1.4888    1.5750 H   0  0  0  0  0  0  0  0  0  0  0  0
  1  2  1  0
  2  3  1  0
  3  4  1  0
  4  5  2  0
  5  6  1  0
  6  7  1  0
  7  8  2  0
  8  9  1  0
  9 10  2  0
 10 11  1  0
 11 12  2  0
 12  4  1  0
 12  7  1  0
  1 13  1  0
  2 14  1  0
  2 15  1  0
  3 16  1  0
  3 17  1  0
  5 18  1  0
  6 19  1  0
  8 20  1  0
  9 21  1  0
 10 22  1  0
 11 23  1  0
M  END
>  <coordinate_phase>  (9) 
MMFF94_after_optimization_status_retained

>  <molecule_id>  (9) 
tryptophol

>  <seed>  (9) 
20260928

>  <conformer_id>  (9) 
8

>  <optimization_status>  (9) 
0

>  <energy_kcal_mol>  (9) 
27.4591061343473

>  <sasa_A2>  (9) 
359.2581830475035

>  <sasa_orientation_sd_A2>  (9) 
1.5799600074467846

>  <sasa_orientation_range_A2>  (9) 
7.535527781631856

>  <sasa_first_half_vs_all_abs_delta_A2>  (9) 
0.14295111979646435

>  <mass_weighted_Rg_A>  (9) 
2.4501982380236855

>  <unweighted_Rg_A>  (9) 
2.902614871985563

$$$$
tryptophol_20260928_9
     RDKit          3D

 23 24  0  0  0  0  0  0  0  0999 V2000
    3.2352    1.2622    0.4162 O   0  0  0  0  0  0  0  0  0  0  0  0
    2.5058    0.4733    1.3533 C   0  0  0  0  0  0  0  0  0  0  0  0
    1.9671   -0.8017    0.7040 C   0  0  0  0  0  0  0  0  0  0  0  0
    0.8667   -0.5314   -0.2786 C   0  0  0  0  0  0  0  0  0  0  0  0
    0.9872   -0.5059   -1.6549 C   0  0  0  0  0  0  0  0  0  0  0  0
   -0.2406   -0.2259   -2.1903 N   0  0  0  0  0  0  0  0  0  0  0  0
   -1.1695   -0.0622   -1.1899 C   0  0  0  0  0  0  0  0  0  0  0  0
   -2.5356    0.2344   -1.2684 C   0  0  0  0  0  0  0  0  0  0  0  0
   -3.2460    0.3391   -0.0692 C   0  0  0  0  0  0  0  0  0  0  0  0
   -2.6135    0.1527    1.1573 C   0  0  0  0  0  0  0  0  0  0  0  0
   -1.2468   -0.1438    1.2174 C   0  0  0  0  0  0  0  0  0  0  0  0
   -0.5059   -0.2531    0.0224 C   0  0  0  0  0  0  0  0  0  0  0  0
    2.6127    1.4851   -0.2998 H   0  0  0  0  0  0  0  0  0  0  0  0
    1.7065    1.0898    1.7776 H   0  0  0  0  0  0  0  0  0  0  0  0
    3.1955    0.2115    2.1618 H   0  0  0  0  0  0  0  0  0  0  0  0
    1.5898   -1.4742    1.4835 H   0  0  0  0  0  0  0  0  0  0  0  0
    2.7845   -1.3240    0.1915 H   0  0  0  0  0  0  0  0  0  0  0  0
    1.8434   -0.6686   -2.2968 H   0  0  0  0  0  0  0  0  0  0  0  0
   -0.4437   -0.1516   -3.1774 H   0  0  0  0  0  0  0  0  0  0  0  0
   -3.0321    0.3781   -2.2224 H   0  0  0  0  0  0  0  0  0  0  0  0
   -4.3089    0.5681   -0.0958 H   0  0  0  0  0  0  0  0  0  0  0  0
   -3.1852    0.2369    2.0782 H   0  0  0  0  0  0  0  0  0  0  0  0
   -0.7666   -0.2887    2.1803 H   0  0  0  0  0  0  0  0  0  0  0  0
  1  2  1  0
  2  3  1  0
  3  4  1  0
  4  5  2  0
  5  6  1  0
  6  7  1  0
  7  8  2  0
  8  9  1  0
  9 10  2  0
 10 11  1  0
 11 12  2  0
 12  4  1  0
 12  7  1  0
  1 13  1  0
  2 14  1  0
  2 15  1  0
  3 16  1  0
  3 17  1  0
  5 18  1  0
  6 19  1  0
  8 20  1  0
  9 21  1  0
 10 22  1  0
 11 23  1  0
M  END
>  <coordinate_phase>  (10) 
MMFF94_after_optimization_status_retained

>  <molecule_id>  (10) 
tryptophol

>  <seed>  (10) 
20260928

>  <conformer_id>  (10) 
9

>  <optimization_status>  (10) 
0

>  <energy_kcal_mol>  (10) 
25.001406356122274

>  <sasa_A2>  (10) 
356.35278981265327

>  <sasa_orientation_sd_A2>  (10) 
1.65960932122746

>  <sasa_orientation_range_A2>  (10) 
7.471326902589226

>  <sasa_first_half_vs_all_abs_delta_A2>  (10) 
0.44012426314026243

>  <mass_weighted_Rg_A>  (10) 
2.4917658747991567

>  <unweighted_Rg_A>  (10) 
2.8664523979043484

$$$$
tryptophol_20260929_10
     RDKit          3D

 23 24  0  0  0  0  0  0  0  0999 V2000
   -3.2916   -0.5793   -0.8849 O   0  0  0  0  0  0  0  0  0  0  0  0
   -2.3494   -1.5629   -0.4638 C   0  0  0  0  0  0  0  0  0  0  0  0
   -1.7365   -1.2002    0.8890 C   0  0  0  0  0  0  0  0  0  0  0  0
   -0.8181   -0.0171    0.8108 C   0  0  0  0  0  0  0  0  0  0  0  0
   -1.1183    1.2778    1.1882 C   0  0  0  0  0  0  0  0  0  0  0  0
   -0.0179    2.0592    0.9622 N   0  0  0  0  0  0  0  0  0  0  0  0
    1.0032    1.3023    0.4380 C   0  0  0  0  0  0  0  0  0  0  0  0
    2.2966    1.6763    0.0539 C   0  0  0  0  0  0  0  0  0  0  0  0
    3.1366    0.6795   -0.4507 C   0  0  0  0  0  0  0  0  0  0  0  0
    2.6986   -0.6375   -0.5640 C   0  0  0  0  0  0  0  0  0  0  0  0
    1.4022   -0.9941   -0.1747 C   0  0  0  0  0  0  0  0  0  0  0  0
    0.5334   -0.0074    0.3359 C   0  0  0  0  0  0  0  0  0  0  0  0
   -2.8019    0.2609   -0.9504 H   0  0  0  0  0  0  0  0  0  0  0  0
   -2.8880   -2.5121   -0.3813 H   0  0  0  0  0  0  0  0  0  0  0  0
   -1.5899   -1.6724   -1.2449 H   0  0  0  0  0  0  0  0  0  0  0  0
   -2.5376   -0.9847    1.6069 H   0  0  0  0  0  0  0  0  0  0  0  0
   -1.1762   -2.0597    1.2756 H   0  0  0  0  0  0  0  0  0  0  0  0
   -2.0216    1.7062    1.6031 H   0  0  0  0  0  0  0  0  0  0  0  0
    0.0439    3.0496    1.1533 H   0  0  0  0  0  0  0  0  0  0  0  0
    2.6420    2.7010    0.1428 H   0  0  0  0  0  0  0  0  0  0  0  0
    4.1477    0.9373   -0.7577 H   0  0  0  0  0  0  0  0  0  0  0  0
    3.3688   -1.3977   -0.9576 H   0  0  0  0  0  0  0  0  0  0  0  0
    1.0741   -2.0250   -0.2666 H   0  0  0  0  0  0  0  0  0  0  0  0
  1  2  1  0
  2  3  1  0
  3  4  1  0
  4  5  2  0
  5  6  1  0
  6  7  1  0
  7  8  2  0
  8  9  1  0
  9 10  2  0
 10 11  1  0
 11 12  2  0
 12  4  1  0
 12  7  1  0
  1 13  1  0
  2 14  1  0
  2 15  1  0
  3 16  1  0
  3 17  1  0
  5 18  1  0
  6 19  1  0
  8 20  1  0
  9 21  1  0
 10 22  1  0
 11 23  1  0
M  END
>  <coordinate_phase>  (11) 
MMFF94_after_optimization_status_retained

>  <molecule_id>  (11) 
tryptophol

>  <seed>  (11) 
20260929

>  <conformer_id>  (11) 
10

>  <optimization_status>  (11) 
0

>  <energy_kcal_mol>  (11) 
25.00140634513079

>  <sasa_A2>  (11) 
356.97862892101875

>  <sasa_orientation_sd_A2>  (11) 
2.4404065923670917

>  <sasa_orientation_range_A2>  (11) 
10.70564905076435

>  <sasa_first_half_vs_all_abs_delta_A2>  (11) 
0.6152321945310746

>  <mass_weighted_Rg_A>  (11) 
2.491767145239385

>  <unweighted_Rg_A>  (11) 
2.8664533572750512

$$$$
tryptophol_20260929_11
     RDKit          3D

 23 24  0  0  0  0  0  0  0  0999 V2000
   -3.9956    0.9572    0.0691 O   0  0  0  0  0  0  0  0  0  0  0  0
   -2.7386    0.3718   -0.2608 C   0  0  0  0  0  0  0  0  0  0  0  0
   -1.9182    0.1237    1.0025 C   0  0  0  0  0  0  0  0  0  0  0  0
   -0.6056   -0.5284    0.7169 C   0  0  0  0  0  0  0  0  0  0  0  0
   -0.3169   -1.8749    0.8272 C   0  0  0  0  0  0  0  0  0  0  0  0
    0.9924   -2.0645    0.4754 N   0  0  0  0  0  0  0  0  0  0  0  0
    1.5722   -0.8658    0.1331 C   0  0  0  0  0  0  0  0  0  0  0  0
    2.8771   -0.5825   -0.2879 C   0  0  0  0  0  0  0  0  0  0  0  0
    3.1917    0.7497   -0.5711 C   0  0  0  0  0  0  0  0  0  0  0  0
    2.2381    1.7557   -0.4373 C   0  0  0  0  0  0  0  0  0  0  0  0
    0.9381    1.4546   -0.0148 C   0  0  0  0  0  0  0  0  0  0  0  0
    0.5942    0.1185    0.2770 C   0  0  0  0  0  0  0  0  0  0  0  0
   -4.4915    0.3034    0.5911 H   0  0  0  0  0  0  0  0  0  0  0  0
   -2.2180    1.0572   -0.9376 H   0  0  0  0  0  0  0  0  0  0  0  0
   -2.9248   -0.5590   -0.8076 H   0  0  0  0  0  0  0  0  0  0  0  0
   -1.7608    1.0734    1.5291 H   0  0  0  0  0  0  0  0  0  0  0  0
   -2.5000   -0.4959    1.6971 H   0  0  0  0  0  0  0  0  0  0  0  0
   -0.9310   -2.7134    1.1278 H   0  0  0  0  0  0  0  0  0  0  0  0
    1.4714   -2.9541    0.4666 H   0  0  0  0  0  0  0  0  0  0  0  0
    3.6227   -1.3637   -0.3927 H   0  0  0  0  0  0  0  0  0  0  0  0
    4.1967    1.0034   -0.9005 H   0  0  0  0  0  0  0  0  0  0  0  0
    2.5033    2.7858   -0.6623 H   0  0  0  0  0  0  0  0  0  0  0  0
    0.2031    2.2478    0.0861 H   0  0  0  0  0  0  0  0  0  0  0  0
  1  2  1  0
  2  3  1  0
  3  4  1  0
  4  5  2  0
  5  6  1  0
  6  7  1  0
  7  8  2  0
  8  9  1  0
  9 10  2  0
 10 11  1  0
 11 12  2  0
 12  4  1  0
 12  7  1  0
  1 13  1  0
  2 14  1  0
  2 15  1  0
  3 16  1  0
  3 17  1  0
  5 18  1  0
  6 19  1  0
  8 20  1  0
  9 21  1  0
 10 22  1  0
 11 23  1  0
M  END
>  <coordinate_phase>  (12) 
MMFF94_after_optimization_status_retained

>  <molecule_id>  (12) 
tryptophol

>  <seed>  (12) 
20260929

>  <conformer_id>  (12) 
11

>  <optimization_status>  (12) 
0

>  <energy_kcal_mol>  (12) 
27.05815616858549

>  <sasa_A2>  (12) 
363.1759733397724

>  <sasa_orientation_sd_A2>  (12) 
1.1442472204132925

>  <sasa_orientation_range_A2>  (12) 
4.620519856552846

>  <sasa_first_half_vs_all_abs_delta_A2>  (12) 
0.33886539310566377

>  <mass_weighted_Rg_A>  (12) 
2.6136592966829704

>  <unweighted_Rg_A>  (12) 
2.9644519890411636

$$$$
tryptophol_20260929_12
     RDKit          3D

 23 24  0  0  0  0  0  0  0  0999 V2000
   -3.9424   -1.0166   -0.3997 O   0  0  0  0  0  0  0  0  0  0  0  0
   -2.7595   -0.2263   -0.3252 C   0  0  0  0  0  0  0  0  0  0  0  0
   -1.8218   -0.8034    0.7308 C   0  0  0  0  0  0  0  0  0  0  0  0
   -0.5570   -0.0183    0.8609 C   0  0  0  0  0  0  0  0  0  0  0  0
   -0.2923    0.9602    1.7995 C   0  0  0  0  0  0  0  0  0  0  0  0
    0.9720    1.4364    1.5804 N   0  0  0  0  0  0  0  0  0  0  0  0
    1.5452    0.7914    0.5099 C   0  0  0  0  0  0  0  0  0  0  0  0
    2.8097    0.9529   -0.0691 C   0  0  0  0  0  0  0  0  0  0  0  0
    3.1290    0.1446   -1.1640 C   0  0  0  0  0  0  0  0  0  0  0  0
    2.2190   -0.7873   -1.6570 C   0  0  0  0  0  0  0  0  0  0  0  0
    0.9590   -0.9355   -1.0658 C   0  0  0  0  0  0  0  0  0  0  0  0
    0.6109   -0.1315    0.0393 C   0  0  0  0  0  0  0  0  0  0  0  0
   -4.5077   -0.6119   -1.0799 H   0  0  0  0  0  0  0  0  0  0  0  0
   -2.2856   -0.2222   -1.3126 H   0  0  0  0  0  0  0  0  0  0  0  0
   -3.0453    0.8010   -0.0742 H   0  0  0  0  0  0  0  0  0  0  0  0
   -1.5924   -1.8484    0.4870 H   0  0  0  0  0  0  0  0  0  0  0  0
   -2.3424   -0.8415    1.6964 H   0  0  0  0  0  0  0  0  0  0  0  0
   -0.8966    1.3544    2.6059 H   0  0  0  0  0  0  0  0  0  0  0  0
    1.4259    2.1571    2.1239 H   0  0  0  0  0  0  0  0  0  0  0  0
    3.5218    1.6763    0.3139 H   0  0  0  0  0  0  0  0  0  0  0  0
    4.1038    0.2444   -1.6359 H   0  0  0  0  0  0  0  0  0  0  0  0
    2.4882   -1.4081   -2.5079 H   0  0  0  0  0  0  0  0  0  0  0  0
    0.2586   -1.6677   -1.4566 H   0  0  0  0  0  0  0  0  0  0  0  0
  1  2  1  0
  2  3  1  0
  3  4  1  0
  4  5  2  0
  5  6  1  0
  6  7  1  0
  7  8  2  0
  8  9  1  0
  9 10  2  0
 10 11  1  0
 11 12  2  0
 12  4  1  0
 12  7  1  0
  1 13  1  0
  2 14  1  0
  2 15  1  0
  3 16  1  0
  3 17  1  0
  5 18  1  0
  6 19  1  0
  8 20  1  0
  9 21  1  0
 10 22  1  0
 11 23  1  0
M  END
>  <coordinate_phase>  (13) 
MMFF94_after_optimization_status_retained

>  <molecule_id>  (13) 
tryptophol

>  <seed>  (13) 
20260929

>  <conformer_id>  (13) 
12

>  <optimization_status>  (13) 
0

>  <energy_kcal_mol>  (13) 
26.42142582175108

>  <sasa_A2>  (13) 
364.79203787180126

>  <sasa_orientation_sd_A2>  (13) 
1.3238436551077415

>  <sasa_orientation_range_A2>  (13) 
4.608946653431133

>  <sasa_first_half_vs_all_abs_delta_A2>  (13) 
0.31659559167752604

>  <mass_weighted_Rg_A>  (13) 
2.614416261029499

>  <unweighted_Rg_A>  (13) 
2.975669609188099

$$$$
tryptophol_20260929_13
     RDKit          3D

 23 24  0  0  0  0  0  0  0  0999 V2000
    2.5722    1.3069   -0.9582 O   0  0  0  0  0  0  0  0  0  0  0  0
    2.9815    0.1301   -0.2659 C   0  0  0  0  0  0  0  0  0  0  0  0
    2.0382   -0.1938    0.8927 C   0  0  0  0  0  0  0  0  0  0  0  0
    0.7038   -0.6959    0.4278 C   0  0  0  0  0  0  0  0  0  0  0  0
    0.3706   -2.0107    0.1644 C   0  0  0  0  0  0  0  0  0  0  0  0
   -0.9369   -2.0515   -0.2389 N   0  0  0  0  0  0  0  0  0  0  0  0
   -1.4715   -0.7848   -0.2498 C   0  0  0  0  0  0  0  0  0  0  0  0
   -2.7574   -0.3517   -0.5949 C   0  0  0  0  0  0  0  0  0  0  0  0
   -3.0251    1.0175   -0.5079 C   0  0  0  0  0  0  0  0  0  0  0  0
   -2.0452    1.9147   -0.0910 C   0  0  0  0  0  0  0  0  0  0  0  0
   -0.7650    1.4642    0.2511 C   0  0  0  0  0  0  0  0  0  0  0  0
   -0.4678    0.0878    0.1708 C   0  0  0  0  0  0  0  0  0  0  0  0
    1.6870    1.1222   -1.3232 H   0  0  0  0  0  0  0  0  0  0  0  0
    3.0453   -0.6931   -0.9856 H   0  0  0  0  0  0  0  0  0  0  0  0
    3.9875    0.3188    0.1218 H   0  0  0  0  0  0  0  0  0  0  0  0
    2.5013   -0.9588    1.5278 H   0  0  0  0  0  0  0  0  0  0  0  0
    1.8936    0.6982    1.5138 H   0  0  0  0  0  0  0  0  0  0  0  0
    0.9526   -2.9205    0.2317 H   0  0  0  0  0  0  0  0  0  0  0  0
   -1.4432   -2.8881   -0.4936 H   0  0  0  0  0  0  0  0  0  0  0  0
   -3.5241   -1.0480   -0.9183 H   0  0  0  0  0  0  0  0  0  0  0  0
   -4.0145    1.3865   -0.7685 H   0  0  0  0  0  0  0  0  0  0  0  0
   -2.2741    2.9758   -0.0289 H   0  0  0  0  0  0  0  0  0  0  0  0
   -0.0089    2.1741    0.5752 H   0  0  0  0  0  0  0  0  0  0  0  0
  1  2  1  0
  2  3  1  0
  3  4  1  0
  4  5  2  0
  5  6  1  0
  6  7  1  0
  7  8  2  0
  8  9  1  0
  9 10  2  0
 10 11  1  0
 11 12  2  0
 12  4  1  0
 12  7  1  0
  1 13  1  0
  2 14  1  0
  2 15  1  0
  3 16  1  0
  3 17  1  0
  5 18  1  0
  6 19  1  0
  8 20  1  0
  9 21  1  0
 10 22  1  0
 11 23  1  0
M  END
>  <coordinate_phase>  (14) 
MMFF94_after_optimization_status_retained

>  <molecule_id>  (14) 
tryptophol

>  <seed>  (14) 
20260929

>  <conformer_id>  (14) 
13

>  <optimization_status>  (14) 
0

>  <energy_kcal_mol>  (14) 
24.61742254320924

>  <sasa_A2>  (14) 
355.78655840442326

>  <sasa_orientation_sd_A2>  (14) 
1.0499775763194095

>  <sasa_orientation_range_A2>  (14) 
4.459041823039115

>  <sasa_first_half_vs_all_abs_delta_A2>  (14) 
0.016650367492900386

>  <mass_weighted_Rg_A>  (14) 
2.435974110445476

>  <unweighted_Rg_A>  (14) 
2.848325105625161

$$$$
tryptophol_20260929_14
     RDKit          3D

 23 24  0  0  0  0  0  0  0  0999 V2000
    2.9989   -1.6551   -0.7074 O   0  0  0  0  0  0  0  0  0  0  0  0
    2.3846   -1.5234    0.5724 C   0  0  0  0  0  0  0  0  0  0  0  0
    2.0558   -0.0627    0.8817 C   0  0  0  0  0  0  0  0  0  0  0  0
    0.9415    0.4730    0.0328 C   0  0  0  0  0  0  0  0  0  0  0  0
    1.0766    1.2837   -1.0780 C   0  0  0  0  0  0  0  0  0  0  0  0
   -0.1716    1.5533   -1.5697 N   0  0  0  0  0  0  0  0  0  0  0  0
   -1.1290    0.9307   -0.8041 C   0  0  0  0  0  0  0  0  0  0  0  0
   -2.5231    0.9243   -0.9343 C   0  0  0  0  0  0  0  0  0  0  0  0
   -3.2584    0.1972    0.0061 C   0  0  0  0  0  0  0  0  0  0  0  0
   -2.6228   -0.4933    1.0348 C   0  0  0  0  0  0  0  0  0  0  0  0
   -1.2279   -0.4758    1.1503 C   0  0  0  0  0  0  0  0  0  0  0  0
   -0.4617    0.2484    0.2136 C   0  0  0  0  0  0  0  0  0  0  0  0
    2.3601   -1.3081   -1.3565 H   0  0  0  0  0  0  0  0  0  0  0  0
    3.0944   -1.9056    1.3127 H   0  0  0  0  0  0  0  0  0  0  0  0
    1.4947   -2.1608    0.5972 H   0  0  0  0  0  0  0  0  0  0  0  0
    1.7741    0.0301    1.9373 H   0  0  0  0  0  0  0  0  0  0  0  0
    2.9505    0.5534    0.7286 H   0  0  0  0  0  0  0  0  0  0  0  0
    1.9568    1.6946   -1.5556 H   0  0  0  0  0  0  0  0  0  0  0  0
   -0.3694    2.1286   -2.3767 H   0  0  0  0  0  0  0  0  0  0  0  0
   -3.0217    1.4630   -1.7332 H   0  0  0  0  0  0  0  0  0  0  0  0
   -4.3433    0.1725   -0.0669 H   0  0  0  0  0  0  0  0  0  0  0  0
   -3.2139   -1.0513    1.7567 H   0  0  0  0  0  0  0  0  0  0  0  0
   -0.7452   -1.0169    1.9584 H   0  0  0  0  0  0  0  0  0  0  0  0
  1  2  1  0
  2  3  1  0
  3  4  1  0
  4  5  2  0
  5  6  1  0
  6  7  1  0
  7  8  2  0
  8  9  1  0
  9 10  2  0
 10 11  1  0
 11 12  2  0
 12  4  1  0
 12  7  1  0
  1 13  1  0
  2 14  1  0
  2 15  1  0
  3 16  1  0
  3 17  1  0
  5 18  1  0
  6 19  1  0
  8 20  1  0
  9 21  1  0
 10 22  1  0
 11 23  1  0
M  END
>  <coordinate_phase>  (15) 
MMFF94_after_optimization_status_retained

>  <molecule_id>  (15) 
tryptophol

>  <seed>  (15) 
20260929

>  <conformer_id>  (15) 
14

>  <optimization_status>  (15) 
0

>  <energy_kcal_mol>  (15) 
25.001406336760283

>  <sasa_A2>  (15) 
356.75943809618303

>  <sasa_orientation_sd_A2>  (15) 
2.4701314422491842

>  <sasa_orientation_range_A2>  (15) 
13.50238056870154

>  <sasa_first_half_vs_all_abs_delta_A2>  (15) 
0.20985367062235127

>  <mass_weighted_Rg_A>  (15) 
2.4917672905828594

>  <unweighted_Rg_A>  (15) 
2.866453472644653

$$$$
tryptophol_20260929_15
     RDKit          3D

 23 24  0  0  0  0  0  0  0  0999 V2000
    2.5918    1.4241   -0.6100 O   0  0  0  0  0  0  0  0  0  0  0  0
    2.9564    0.0554   -0.4501 C   0  0  0  0  0  0  0  0  0  0  0  0
    1.8544   -0.8789   -0.9500 C   0  0  0  0  0  0  0  0  0  0  0  0
    0.6551   -0.8907   -0.0498 C   0  0  0  0  0  0  0  0  0  0  0  0
    0.4607   -1.7122    1.0440 C   0  0  0  0  0  0  0  0  0  0  0  0
   -0.7537   -1.4108    1.5992 N   0  0  0  0  0  0  0  0  0  0  0  0
   -1.3629   -0.4012    0.8923 C   0  0  0  0  0  0  0  0  0  0  0  0
   -2.5979    0.2255    1.0978 C   0  0  0  0  0  0  0  0  0  0  0  0
   -2.9683    1.2360    0.2057 C   0  0  0  0  0  0  0  0  0  0  0  0
   -2.1360    1.6020   -0.8490 C   0  0  0  0  0  0  0  0  0  0  0  0
   -0.9050    0.9642   -1.0402 C   0  0  0  0  0  0  0  0  0  0  0  0
   -0.5062   -0.0578   -0.1537 C   0  0  0  0  0  0  0  0  0  0  0  0
    1.7958    1.5663   -0.0649 H   0  0  0  0  0  0  0  0  0  0  0  0
    3.1966   -0.1203    0.6039 H   0  0  0  0  0  0  0  0  0  0  0  0
    3.8670   -0.1052   -1.0357 H   0  0  0  0  0  0  0  0  0  0  0  0
    1.5467   -0.5828   -1.9599 H   0  0  0  0  0  0  0  0  0  0  0  0
    2.2536   -1.8981   -1.0191 H   0  0  0  0  0  0  0  0  0  0  0  0
    1.0829   -2.4867    1.4729 H   0  0  0  0  0  0  0  0  0  0  0  0
   -1.1519   -1.8611    2.4114 H   0  0  0  0  0  0  0  0  0  0  0  0
   -3.2499   -0.0583    1.9173 H   0  0  0  0  0  0  0  0  0  0  0  0
   -3.9218    1.7424    0.3374 H   0  0  0  0  0  0  0  0  0  0  0  0
   -2.4432    2.3897   -1.5325 H   0  0  0  0  0  0  0  0  0  0  0  0
   -0.2643    1.2585   -1.8670 H   0  0  0  0  0  0  0  0  0  0  0  0
  1  2  1  0
  2  3  1  0
  3  4  1  0
  4  5  2  0
  5  6  1  0
  6  7  1  0
  7  8  2  0
  8  9  1  0
  9 10  2  0
 10 11  1  0
 11 12  2  0
 12  4  1  0
 12  7  1  0
  1 13  1  0
  2 14  1  0
  2 15  1  0
  3 16  1  0
  3 17  1  0
  5 18  1  0
  6 19  1  0
  8 20  1  0
  9 21  1  0
 10 22  1  0
 11 23  1  0
M  END
>  <coordinate_phase>  (16) 
MMFF94_after_optimization_status_retained

>  <molecule_id>  (16) 
tryptophol

>  <seed>  (16) 
20260929

>  <conformer_id>  (16) 
15

>  <optimization_status>  (16) 
0

>  <energy_kcal_mol>  (16) 
24.617422462280086

>  <sasa_A2>  (16) 
355.3229457778114

>  <sasa_orientation_sd_A2>  (16) 
1.0841114608224534

>  <sasa_orientation_range_A2>  (16) 
5.093455854514332

>  <sasa_first_half_vs_all_abs_delta_A2>  (16) 
0.16792412836736048

>  <mass_weighted_Rg_A>  (16) 
2.4359629432588457

>  <unweighted_Rg_A>  (16) 
2.84831875879135

$$$$
tryptophol_20260929_16
     RDKit          3D

 23 24  0  0  0  0  0  0  0  0999 V2000
   -2.4947   -0.8178   -1.4918 O   0  0  0  0  0  0  0  0  0  0  0  0
   -2.9561   -0.4049   -0.2079 C   0  0  0  0  0  0  0  0  0  0  0  0
   -1.9432   -0.7435    0.8859 C   0  0  0  0  0  0  0  0  0  0  0  0
   -0.7214    0.1242    0.8301 C   0  0  0  0  0  0  0  0  0  0  0  0
   -0.5563    1.3463    1.4532 C   0  0  0  0  0  0  0  0  0  0  0  0
    0.6936    1.8175    1.1539 N   0  0  0  0  0  0  0  0  0  0  0  0
    1.3553    0.9284    0.3403 C   0  0  0  0  0  0  0  0  0  0  0  0
    2.6396    0.9961   -0.2130 C   0  0  0  0  0  0  0  0  0  0  0  0
    3.0577   -0.0713   -1.0130 C   0  0  0  0  0  0  0  0  0  0  0  0
    2.2237   -1.1615   -1.2473 C   0  0  0  0  0  0  0  0  0  0  0  0
    0.9429   -1.2132   -0.6853 C   0  0  0  0  0  0  0  0  0  0  0  0
    0.4955   -0.1487    0.1247 C   0  0  0  0  0  0  0  0  0  0  0  0
   -1.6741   -0.3208   -1.6664 H   0  0  0  0  0  0  0  0  0  0  0  0
   -3.8936   -0.9365   -0.0170 H   0  0  0  0  0  0  0  0  0  0  0  0
   -3.1768    0.6672   -0.2452 H   0  0  0  0  0  0  0  0  0  0  0  0
   -2.4199   -0.6190    1.8658 H   0  0  0  0  0  0  0  0  0  0  0  0
   -1.6449   -1.7954    0.8026 H   0  0  0  0  0  0  0  0  0  0  0  0
   -1.2217    1.9193    2.0855 H   0  0  0  0  0  0  0  0  0  0  0  0
    1.0813    2.6917    1.4802 H   0  0  0  0  0  0  0  0  0  0  0  0
    3.2930    1.8430   -0.0311 H   0  0  0  0  0  0  0  0  0  0  0  0
    4.0502   -0.0497   -1.4575 H   0  0  0  0  0  0  0  0  0  0  0  0
    2.5684   -1.9822   -1.8715 H   0  0  0  0  0  0  0  0  0  0  0  0
    0.3015   -2.0694   -0.8753 H   0  0  0  0  0  0  0  0  0  0  0  0
  1  2  1  0
  2  3  1  0
  3  4  1  0
  4  5  2  0
  5  6  1  0
  6  7  1  0
  7  8  2  0
  8  9  1  0
  9 10  2  0
 10 11  1  0
 11 12  2  0
 12  4  1  0
 12  7  1  0
  1 13  1  0
  2 14  1  0
  2 15  1  0
  3 16  1  0
  3 17  1  0
  5 18  1  0
  6 19  1  0
  8 20  1  0
  9 21  1  0
 10 22  1  0
 11 23  1  0
M  END
>  <coordinate_phase>  (17) 
MMFF94_after_optimization_status_retained

>  <molecule_id>  (17) 
tryptophol

>  <seed>  (17) 
20260929

>  <conformer_id>  (17) 
16

>  <optimization_status>  (17) 
0

>  <energy_kcal_mol>  (17) 
24.617422464629453

>  <sasa_A2>  (17) 
355.4687067197563

>  <sasa_orientation_sd_A2>  (17) 
1.3977002500527305

>  <sasa_orientation_range_A2>  (17) 
6.125331558363257

>  <sasa_first_half_vs_all_abs_delta_A2>  (17) 
0.00042246014754709904

>  <mass_weighted_Rg_A>  (17) 
2.4359615200422065

>  <unweighted_Rg_A>  (17) 
2.8483167081932224

$$$$
tryptophol_20260929_17
     RDKit          3D

 23 24  0  0  0  0  0  0  0  0999 V2000
   -3.3668   -0.8560   -0.4060 O   0  0  0  0  0  0  0  0  0  0  0  0
   -2.6321    0.0871   -1.1828 C   0  0  0  0  0  0  0  0  0  0  0  0
   -1.9230    1.1068   -0.2913 C   0  0  0  0  0  0  0  0  0  0  0  0
   -0.7868    0.5085    0.4834 C   0  0  0  0  0  0  0  0  0  0  0  0
   -0.8090    0.1406    1.8152 C   0  0  0  0  0  0  0  0  0  0  0  0
    0.4203   -0.3626    2.1443 N   0  0  0  0  0  0  0  0  0  0  0  0
    1.2531   -0.3366    1.0507 C   0  0  0  0  0  0  0  0  0  0  0  0
    2.5848   -0.7495    0.9221 C   0  0  0  0  0  0  0  0  0  0  0  0
    3.1923   -0.5986   -0.3277 C   0  0  0  0  0  0  0  0  0  0  0  0
    2.4943   -0.0551   -1.4031 C   0  0  0  0  0  0  0  0  0  0  0  0
    1.1633    0.3530   -1.2568 C   0  0  0  0  0  0  0  0  0  0  0  0
    0.5257    0.2100   -0.0070 C   0  0  0  0  0  0  0  0  0  0  0  0
   -2.7194   -1.3030    0.1693 H   0  0  0  0  0  0  0  0  0  0  0  0
   -1.9314   -0.4607   -1.8214 H   0  0  0  0  0  0  0  0  0  0  0  0
   -3.3491    0.6005   -1.8310 H   0  0  0  0  0  0  0  0  0  0  0  0
   -1.5379    1.9250   -0.9114 H   0  0  0  0  0  0  0  0  0  0  0  0
   -2.6447    1.5427    0.4106 H   0  0  0  0  0  0  0  0  0  0  0  0
   -1.5958    0.1998    2.5562 H   0  0  0  0  0  0  0  0  0  0  0  0
    0.6861   -0.7030    3.0580 H   0  0  0  0  0  0  0  0  0  0  0  0
    3.1323   -1.1713    1.7585 H   0  0  0  0  0  0  0  0  0  0  0  0
    4.2261   -0.9093   -0.4605 H   0  0  0  0  0  0  0  0  0  0  0  0
    2.9863    0.0550   -2.3663 H   0  0  0  0  0  0  0  0  0  0  0  0
    0.6314    0.7769   -2.1030 H   0  0  0  0  0  0  0  0  0  0  0  0
  1  2  1  0
  2  3  1  0
  3  4  1  0
  4  5  2  0
  5  6  1  0
  6  7  1  0
  7  8  2  0
  8  9  1  0
  9 10  2  0
 10 11  1  0
 11 12  2  0
 12  4  1  0
 12  7  1  0
  1 13  1  0
  2 14  1  0
  2 15  1  0
  3 16  1  0
  3 17  1  0
  5 18  1  0
  6 19  1  0
  8 20  1  0
  9 21  1  0
 10 22  1  0
 11 23  1  0
M  END
>  <coordinate_phase>  (18) 
MMFF94_after_optimization_status_retained

>  <molecule_id>  (18) 
tryptophol

>  <seed>  (18) 
20260929

>  <conformer_id>  (18) 
17

>  <optimization_status>  (18) 
0

>  <energy_kcal_mol>  (18) 
25.001406335563434

>  <sasa_A2>  (18) 
356.99074968666076

>  <sasa_orientation_sd_A2>  (18) 
1.336089661572452

>  <sasa_orientation_range_A2>  (18) 
6.345966224153301

>  <sasa_first_half_vs_all_abs_delta_A2>  (18) 
0.05530253732240453

>  <mass_weighted_Rg_A>  (18) 
2.491767636673886

>  <unweighted_Rg_A>  (18) 
2.8664539439901904

$$$$
tryptophol_20260929_18
     RDKit          3D

 23 24  0  0  0  0  0  0  0  0999 V2000
    3.5655    0.5242    0.4765 O   0  0  0  0  0  0  0  0  0  0  0  0
    2.8176   -0.5605   -0.0690 C   0  0  0  0  0  0  0  0  0  0  0  0
    1.8446   -0.0598   -1.1358 C   0  0  0  0  0  0  0  0  0  0  0  0
    0.6087    0.5549   -0.5499 C   0  0  0  0  0  0  0  0  0  0  0  0
    0.4277    1.8891   -0.2415 C   0  0  0  0  0  0  0  0  0  0  0  0
   -0.8280    2.0466    0.2764 N   0  0  0  0  0  0  0  0  0  0  0  0
   -1.4827    0.8379    0.3137 C   0  0  0  0  0  0  0  0  0  0  0  0
   -2.7721    0.5242    0.7605 C   0  0  0  0  0  0  0  0  0  0  0  0
   -3.1795   -0.8104    0.6794 C   0  0  0  0  0  0  0  0  0  0  0  0
   -2.3295   -1.7897    0.1715 C   0  0  0  0  0  0  0  0  0  0  0  0
   -1.0432   -1.4584   -0.2704 C   0  0  0  0  0  0  0  0  0  0  0  0
   -0.6067   -0.1190   -0.2001 C   0  0  0  0  0  0  0  0  0  0  0  0
    4.0502    0.1750    1.2433 H   0  0  0  0  0  0  0  0  0  0  0  0
    3.5350   -1.2531   -0.5206 H   0  0  0  0  0  0  0  0  0  0  0  0
    2.2973   -1.0769    0.7448 H   0  0  0  0  0  0  0  0  0  0  0  0
    1.5480   -0.9017   -1.7728 H   0  0  0  0  0  0  0  0  0  0  0  0
    2.3415    0.6749   -1.7813 H   0  0  0  0  0  0  0  0  0  0  0  0
    1.0965    2.7342   -0.3403 H   0  0  0  0  0  0  0  0  0  0  0  0
   -1.2218    2.9218    0.5913 H   0  0  0  0  0  0  0  0  0  0  0  0
   -3.4364    1.2852    1.1564 H   0  0  0  0  0  0  0  0  0  0  0  0
   -4.1755   -1.0865    1.0176 H   0  0  0  0  0  0  0  0  0  0  0  0
   -2.6665   -2.8217    0.1161 H   0  0  0  0  0  0  0  0  0  0  0  0
   -0.3907   -2.2306   -0.6655 H   0  0  0  0  0  0  0  0  0  0  0  0
  1  2  1  0
  2  3  1  0
  3  4  1  0
  4  5  2  0
  5  6  1  0
  6  7  1  0
  7  8  2  0
  8  9  1  0
  9 10  2  0
 10 11  1  0
 11 12  2  0
 12  4  1  0
 12  7  1  0
  1 13  1  0
  2 14  1  0
  2 15  1  0
  3 16  1  0
  3 17  1  0
  5 18  1  0
  6 19  1  0
  8 20  1  0
  9 21  1  0
 10 22  1  0
 11 23  1  0
M  END
>  <coordinate_phase>  (19) 
MMFF94_after_optimization_status_retained

>  <molecule_id>  (19) 
tryptophol

>  <seed>  (19) 
20260929

>  <conformer_id>  (19) 
18

>  <optimization_status>  (19) 
0

>  <energy_kcal_mol>  (19) 
27.60950855443798

>  <sasa_A2>  (19) 
362.1387065365634

>  <sasa_orientation_sd_A2>  (19) 
1.8331163099678924

>  <sasa_orientation_range_A2>  (19) 
8.419491684966033

>  <sasa_first_half_vs_all_abs_delta_A2>  (19) 
0.5722598380995692

>  <mass_weighted_Rg_A>  (19) 
2.5397959942216106

>  <unweighted_Rg_A>  (19) 
2.949543143287659

$$$$
tryptophol_20260929_19
     RDKit          3D

 23 24  0  0  0  0  0  0  0  0999 V2000
    2.7648    1.2364   -0.1442 O   0  0  0  0  0  0  0  0  0  0  0  0
    2.8295   -0.0191    0.5279 C   0  0  0  0  0  0  0  0  0  0  0  0
    1.9556   -1.0557   -0.1777 C   0  0  0  0  0  0  0  0  0  0  0  0
    0.5128   -0.9806    0.2279 C   0  0  0  0  0  0  0  0  0  0  0  0
   -0.1219   -1.7986    1.1439 C   0  0  0  0  0  0  0  0  0  0  0  0
   -1.4343   -1.4186    1.2245 N   0  0  0  0  0  0  0  0  0  0  0  0
   -1.6782   -0.3634    0.3780 C   0  0  0  0  0  0  0  0  0  0  0  0
   -2.8633    0.3411    0.1320 C   0  0  0  0  0  0  0  0  0  0  0  0
   -2.8157    1.3855   -0.7961 C   0  0  0  0  0  0  0  0  0  0  0  0
   -1.6295    1.7104   -1.4492 C   0  0  0  0  0  0  0  0  0  0  0  0
   -0.4549    0.9946   -1.1912 C   0  0  0  0  0  0  0  0  0  0  0  0
   -0.4744   -0.0646   -0.2609 C   0  0  0  0  0  0  0  0  0  0  0  0
    3.1731    1.8935    0.4445 H   0  0  0  0  0  0  0  0  0  0  0  0
    3.8754   -0.3412    0.5033 H   0  0  0  0  0  0  0  0  0  0  0  0
    2.5311    0.1202    1.5726 H   0  0  0  0  0  0  0  0  0  0  0  0
    2.3295   -2.0569    0.0712 H   0  0  0  0  0  0  0  0  0  0  0  0
    2.0320   -0.9422   -1.2657 H   0  0  0  0  0  0  0  0  0  0  0  0
    0.2488   -2.6215    1.7403 H   0  0  0  0  0  0  0  0  0  0  0  0
   -2.1311   -1.8491    1.8157 H   0  0  0  0  0  0  0  0  0  0  0  0
   -3.7887    0.0909    0.6397 H   0  0  0  0  0  0  0  0  0  0  0  0
   -3.7183    1.9530   -1.0097 H   0  0  0  0  0  0  0  0  0  0  0  0
   -1.6107    2.5277   -2.1655 H   0  0  0  0  0  0  0  0  0  0  0  0
    0.4686    1.2582   -1.6995 H   0  0  0  0  0  0  0  0  0  0  0  0
  1  2  1  0
  2  3  1  0
  3  4  1  0
  4  5  2  0
  5  6  1  0
  6  7  1  0
  7  8  2  0
  8  9  1  0
  9 10  2  0
 10 11  1  0
 11 12  2  0
 12  4  1  0
 12  7  1  0
  1 13  1  0
  2 14  1  0
  2 15  1  0
  3 16  1  0
  3 17  1  0
  5 18  1  0
  6 19  1  0
  8 20  1  0
  9 21  1  0
 10 22  1  0
 11 23  1  0
M  END
>  <coordinate_phase>  (20) 
MMFF94_after_optimization_status_retained

>  <molecule_id>  (20) 
tryptophol

>  <seed>  (20) 
20260929

>  <conformer_id>  (20) 
19

>  <optimization_status>  (20) 
0

>  <energy_kcal_mol>  (20) 
27.459106135469966

>  <sasa_A2>  (20) 
359.2725851806804

>  <sasa_orientation_sd_A2>  (20) 
1.7130356527469064

>  <sasa_orientation_range_A2>  (20) 
8.523576118903065

>  <sasa_first_half_vs_all_abs_delta_A2>  (20) 
0.3623012076133705

>  <mass_weighted_Rg_A>  (20) 
2.450200078690824

>  <unweighted_Rg_A>  (20) 
2.9026156172332107

$$$$
tryptophol_20260930_20
     RDKit          3D

 23 24  0  0  0  0  0  0  0  0999 V2000
    3.8103   -1.0819    1.0961 O   0  0  0  0  0  0  0  0  0  0  0  0
    2.5529   -0.4114    1.0633 C   0  0  0  0  0  0  0  0  0  0  0  0
    2.0418   -0.3069   -0.3714 C   0  0  0  0  0  0  0  0  0  0  0  0
    0.7443    0.4257   -0.4677 C   0  0  0  0  0  0  0  0  0  0  0  0
    0.5751    1.7545   -0.8058 C   0  0  0  0  0  0  0  0  0  0  0  0
   -0.7640    2.0380   -0.7799 N   0  0  0  0  0  0  0  0  0  0  0  0
   -1.4812    0.9189   -0.4287 C   0  0  0  0  0  0  0  0  0  0  0  0
   -2.8619    0.7435   -0.2762 C   0  0  0  0  0  0  0  0  0  0  0  0
   -3.3169   -0.5256    0.0933 C   0  0  0  0  0  0  0  0  0  0  0  0
   -2.4250   -1.5748    0.3006 C   0  0  0  0  0  0  0  0  0  0  0  0
   -1.0476   -1.3818    0.1433 C   0  0  0  0  0  0  0  0  0  0  0  0
   -0.5620   -0.1111   -0.2284 C   0  0  0  0  0  0  0  0  0  0  0  0
    4.4487   -0.5236    0.6203 H   0  0  0  0  0  0  0  0  0  0  0  0
    2.6776    0.5775    1.5179 H   0  0  0  0  0  0  0  0  0  0  0  0
    1.8549   -0.9791    1.6873 H   0  0  0  0  0  0  0  0  0  0  0  0
    2.7990    0.1910   -0.9909 H   0  0  0  0  0  0  0  0  0  0  0  0
    1.9395   -1.3128   -0.7978 H   0  0  0  0  0  0  0  0  0  0  0  0
    1.2932    2.5213   -1.0643 H   0  0  0  0  0  0  0  0  0  0  0  0
   -1.1742    2.9376   -0.9883 H   0  0  0  0  0  0  0  0  0  0  0  0
   -3.5596    1.5585   -0.4375 H   0  0  0  0  0  0  0  0  0  0  0  0
   -4.3837   -0.6952    0.2201 H   0  0  0  0  0  0  0  0  0  0  0  0
   -2.7994   -2.5544    0.5872 H   0  0  0  0  0  0  0  0  0  0  0  0
   -0.3618   -2.2078    0.3074 H   0  0  0  0  0  0  0  0  0  0  0  0
  1  2  1  0
  2  3  1  0
  3  4  1  0
  4  5  2  0
  5  6  1  0
  6  7  1  0
  7  8  2  0
  8  9  1  0
  9 10  2  0
 10 11  1  0
 11 12  2  0
 12  4  1  0
 12  7  1  0
  1 13  1  0
  2 14  1  0
  2 15  1  0
  3 16  1  0
  3 17  1  0
  5 18  1  0
  6 19  1  0
  8 20  1  0
  9 21  1  0
 10 22  1  0
 11 23  1  0
M  END
>  <coordinate_phase>  (21) 
MMFF94_after_optimization_status_retained

>  <molecule_id>  (21) 
tryptophol

>  <seed>  (21) 
20260930

>  <conformer_id>  (21) 
20

>  <optimization_status>  (21) 
0

>  <energy_kcal_mol>  (21) 
27.058156182164037

>  <sasa_A2>  (21) 
362.9268689006635

>  <sasa_orientation_sd_A2>  (21) 
1.0075231158655567

>  <sasa_orientation_range_A2>  (21) 
3.633574002808132

>  <sasa_first_half_vs_all_abs_delta_A2>  (21) 
0.15773532460821116

>  <mass_weighted_Rg_A>  (21) 
2.613659489788316

>  <unweighted_Rg_A>  (21) 
2.964452275639517

$$$$
tryptophol_20260930_21
     RDKit          3D

 23 24  0  0  0  0  0  0  0  0999 V2000
    3.5310   -0.7968    0.3353 O   0  0  0  0  0  0  0  0  0  0  0  0
    2.8312    0.1508   -0.4684 C   0  0  0  0  0  0  0  0  0  0  0  0
    1.8871    0.9912    0.3906 C   0  0  0  0  0  0  0  0  0  0  0  0
    0.6151    0.2717    0.7270 C   0  0  0  0  0  0  0  0  0  0  0  0
    0.3897   -0.5098    1.8434 C   0  0  0  0  0  0  0  0  0  0  0  0
   -0.8882   -0.9925    1.7822 N   0  0  0  0  0  0  0  0  0  0  0  0
   -1.5138   -0.5411    0.6439 C   0  0  0  0  0  0  0  0  0  0  0  0
   -2.8110   -0.7786    0.1734 C   0  0  0  0  0  0  0  0  0  0  0  0
   -3.1819   -0.1809   -1.0345 C   0  0  0  0  0  0  0  0  0  0  0  0
   -2.2894    0.6212   -1.7412 C   0  0  0  0  0  0  0  0  0  0  0  0
   -0.9959    0.8476   -1.2562 C   0  0  0  0  0  0  0  0  0  0  0  0
   -0.5955    0.2569   -0.0396 C   0  0  0  0  0  0  0  0  0  0  0  0
    3.9949   -1.3954   -0.2740 H   0  0  0  0  0  0  0  0  0  0  0  0
    2.2934   -0.3835   -1.2589 H   0  0  0  0  0  0  0  0  0  0  0  0
    3.5821    0.7984   -0.9322 H   0  0  0  0  0  0  0  0  0  0  0  0
    2.3897    1.2884    1.3193 H   0  0  0  0  0  0  0  0  0  0  0  0
    1.6357    1.9116   -0.1499 H   0  0  0  0  0  0  0  0  0  0  0  0
    1.0406   -0.7675    2.6687 H   0  0  0  0  0  0  0  0  0  0  0  0
   -1.3151   -1.5971    2.4696 H   0  0  0  0  0  0  0  0  0  0  0  0
   -3.5083   -1.4028    0.7220 H   0  0  0  0  0  0  0  0  0  0  0  0
   -4.1829   -0.3452   -1.4267 H   0  0  0  0  0  0  0  0  0  0  0  0
   -2.5985    1.0775   -2.6782 H   0  0  0  0  0  0  0  0  0  0  0  0
   -0.3100    1.4760   -1.8157 H   0  0  0  0  0  0  0  0  0  0  0  0
  1  2  1  0
  2  3  1  0
  3  4  1  0
  4  5  2  0
  5  6  1  0
  6  7  1  0
  7  8  2  0
  8  9  1  0
  9 10  2  0
 10 11  1  0
 11 12  2  0
 12  4  1  0
 12  7  1  0
  1 13  1  0
  2 14  1  0
  2 15  1  0
  3 16  1  0
  3 17  1  0
  5 18  1  0
  6 19  1  0
  8 20  1  0
  9 21  1  0
 10 22  1  0
 11 23  1  0
M  END
>  <coordinate_phase>  (22) 
MMFF94_after_optimization_status_retained

>  <molecule_id>  (22) 
tryptophol

>  <seed>  (22) 
20260930

>  <conformer_id>  (22) 
21

>  <optimization_status>  (22) 
0

>  <energy_kcal_mol>  (22) 
27.609508561362187

>  <sasa_A2>  (22) 
362.5254470355099

>  <sasa_orientation_sd_A2>  (22) 
1.0973786316695724

>  <sasa_orientation_range_A2>  (22) 
3.7476902869925652

>  <sasa_first_half_vs_all_abs_delta_A2>  (22) 
0.3018297637988212

>  <mass_weighted_Rg_A>  (22) 
2.5398076337881457

>  <unweighted_Rg_A>  (22) 
2.949554442831501

$$$$
tryptophol_20260930_22
     RDKit          3D

 23 24  0  0  0  0  0  0  0  0999 V2000
    2.3582    1.5529   -1.1064 O   0  0  0  0  0  0  0  0  0  0  0  0
    2.6935    0.9959    0.1623 C   0  0  0  0  0  0  0  0  0  0  0  0
    2.1695   -0.4351    0.2800 C   0  0  0  0  0  0  0  0  0  0  0  0
    0.7300   -0.5002    0.6987 C   0  0  0  0  0  0  0  0  0  0  0  0
    0.2610   -0.7520    1.9746 C   0  0  0  0  0  0  0  0  0  0  0  0
   -1.1073   -0.7402    1.9409 N   0  0  0  0  0  0  0  0  0  0  0  0
   -1.5509   -0.4848    0.6653 C   0  0  0  0  0  0  0  0  0  0  0  0
   -2.8557   -0.3827    0.1669 C   0  0  0  0  0  0  0  0  0  0  0  0
   -3.0096   -0.1103   -1.1957 C   0  0  0  0  0  0  0  0  0  0  0  0
   -1.9019    0.0536   -2.0234 C   0  0  0  0  0  0  0  0  0  0  0  0
   -0.6052   -0.0528   -1.5078 C   0  0  0  0  0  0  0  0  0  0  0  0
   -0.4205   -0.3281   -0.1374 C   0  0  0  0  0  0  0  0  0  0  0  0
    2.5397    2.5065   -1.0533 H   0  0  0  0  0  0  0  0  0  0  0  0
    3.7860    0.9949    0.2323 H   0  0  0  0  0  0  0  0  0  0  0  0
    2.2932    1.6413    0.9517 H   0  0  0  0  0  0  0  0  0  0  0  0
    2.2942   -0.9666   -0.6710 H   0  0  0  0  0  0  0  0  0  0  0  0
    2.7686   -0.9669    1.0300 H   0  0  0  0  0  0  0  0  0  0  0  0
    0.7856   -0.9435    2.9010 H   0  0  0  0  0  0  0  0  0  0  0  0
   -1.7118   -0.8995    2.7344 H   0  0  0  0  0  0  0  0  0  0  0  0
   -3.7206   -0.5092    0.8093 H   0  0  0  0  0  0  0  0  0  0  0  0
   -4.0095   -0.0242   -1.6144 H   0  0  0  0  0  0  0  0  0  0  0  0
   -2.0408    0.2680   -3.0799 H   0  0  0  0  0  0  0  0  0  0  0  0
    0.2545    0.0832   -2.1582 H   0  0  0  0  0  0  0  0  0  0  0  0
  1  2  1  0
  2  3  1  0
  3  4  1  0
  4  5  2  0
  5  6  1  0
  6  7  1  0
  7  8  2  0
  8  9  1  0
  9 10  2  0
 10 11  1  0
 11 12  2  0
 12  4  1  0
 12  7  1  0
  1 13  1  0
  2 14  1  0
  2 15  1  0
  3 16  1  0
  3 17  1  0
  5 18  1  0
  6 19  1  0
  8 20  1  0
  9 21  1  0
 10 22  1  0
 11 23  1  0
M  END
>  <coordinate_phase>  (23) 
MMFF94_after_optimization_status_retained

>  <molecule_id>  (23) 
tryptophol

>  <seed>  (23) 
20260930

>  <conformer_id>  (23) 
22

>  <optimization_status>  (23) 
0

>  <energy_kcal_mol>  (23) 
27.45910613762655

>  <sasa_A2>  (23) 
359.49917231188516

>  <sasa_orientation_sd_A2>  (23) 
2.4110670326200925

>  <sasa_orientation_range_A2>  (23) 
12.217720268825417

>  <sasa_first_half_vs_all_abs_delta_A2>  (23) 
0.3218530453215749

>  <mass_weighted_Rg_A>  (23) 
2.4502000576576393

>  <unweighted_Rg_A>  (23) 
2.9026148617089405

$$$$
tryptophol_20260930_23
     RDKit          3D

 23 24  0  0  0  0  0  0  0  0999 V2000
    3.7934    1.1549   -1.0800 O   0  0  0  0  0  0  0  0  0  0  0  0
    2.6307    0.8994   -0.2961 C   0  0  0  0  0  0  0  0  0  0  0  0
    1.9058   -0.3431   -0.8071 C   0  0  0  0  0  0  0  0  0  0  0  0
    0.7002   -0.6809    0.0066 C   0  0  0  0  0  0  0  0  0  0  0  0
    0.6274   -1.6241    1.0134 C   0  0  0  0  0  0  0  0  0  0  0  0
   -0.6490   -1.6276    1.5083 N   0  0  0  0  0  0  0  0  0  0  0  0
   -1.4194   -0.7013    0.8459 C   0  0  0  0  0  0  0  0  0  0  0  0
   -2.7671   -0.3619    1.0157 C   0  0  0  0  0  0  0  0  0  0  0  0
   -3.2942    0.6326    0.1867 C   0  0  0  0  0  0  0  0  0  0  0  0
   -2.5033    1.2601   -0.7725 C   0  0  0  0  0  0  0  0  0  0  0  0
   -1.1576    0.9080   -0.9288 C   0  0  0  0  0  0  0  0  0  0  0  0
   -0.6007   -0.0919   -0.1050 C   0  0  0  0  0  0  0  0  0  0  0  0
    4.4034    0.4096   -0.9446 H   0  0  0  0  0  0  0  0  0  0  0  0
    2.9381    0.7833    0.7489 H   0  0  0  0  0  0  0  0  0  0  0  0
    1.9857    1.7821   -0.3573 H   0  0  0  0  0  0  0  0  0  0  0  0
    2.6017   -1.1920   -0.8141 H   0  0  0  0  0  0  0  0  0  0  0  0
    1.6231   -0.1962   -1.8571 H   0  0  0  0  0  0  0  0  0  0  0  0
    1.3744   -2.2939    1.4182 H   0  0  0  0  0  0  0  0  0  0  0  0
   -0.9847   -2.2228    2.2525 H   0  0  0  0  0  0  0  0  0  0  0  0
   -3.3863   -0.8492    1.7615 H   0  0  0  0  0  0  0  0  0  0  0  0
   -4.3378    0.9196    0.2930 H   0  0  0  0  0  0  0  0  0  0  0  0
   -2.9327    2.0310   -1.4075 H   0  0  0  0  0  0  0  0  0  0  0  0
   -0.5509    1.4043   -1.6806 H   0  0  0  0  0  0  0  0  0  0  0  0
  1  2  1  0
  2  3  1  0
  3  4  1  0
  4  5  2  0
  5  6  1  0
  6  7  1  0
  7  8  2  0
  8  9  1  0
  9 10  2  0
 10 11  1  0
 11 12  2  0
 12  4  1  0
 12  7  1  0
  1 13  1  0
  2 14  1  0
  2 15  1  0
  3 16  1  0
  3 17  1  0
  5 18  1  0
  6 19  1  0
  8 20  1  0
  9 21  1  0
 10 22  1  0
 11 23  1  0
M  END
>  <coordinate_phase>  (24) 
MMFF94_after_optimization_status_retained

>  <molecule_id>  (24) 
tryptophol

>  <seed>  (24) 
20260930

>  <conformer_id>  (24) 
23

>  <optimization_status>  (24) 
0

>  <energy_kcal_mol>  (24) 
27.05815616649916

>  <sasa_A2>  (24) 
362.84267580929253

>  <sasa_orientation_sd_A2>  (24) 
1.2241183734320742

>  <sasa_orientation_range_A2>  (24) 
6.858181627167312

>  <sasa_first_half_vs_all_abs_delta_A2>  (24) 
0.16222175635698477

>  <mass_weighted_Rg_A>  (24) 
2.6136609454595265

>  <unweighted_Rg_A>  (24) 
2.9644537308112833

$$$$
tryptophol_20260930_24
     RDKit          3D

 23 24  0  0  0  0  0  0  0  0999 V2000
   -3.2559   -0.3854   -1.2182 O   0  0  0  0  0  0  0  0  0  0  0  0
   -2.5833    0.8471   -0.9713 C   0  0  0  0  0  0  0  0  0  0  0  0
   -2.0050    0.8894    0.4434 C   0  0  0  0  0  0  0  0  0  0  0  0
   -0.8478   -0.0472    0.6247 C   0  0  0  0  0  0  0  0  0  0  0  0
   -0.8851   -1.2840    1.2398 C   0  0  0  0  0  0  0  0  0  0  0  0
    0.3724   -1.8224    1.2027 N   0  0  0  0  0  0  0  0  0  0  0  0
    1.2392   -0.9630    0.5698 C   0  0  0  0  0  0  0  0  0  0  0  0
    2.6071   -1.0971    0.3035 C   0  0  0  0  0  0  0  0  0  0  0  0
    3.2439   -0.0460   -0.3624 C   0  0  0  0  0  0  0  0  0  0  0  0
    2.5389    1.0926   -0.7441 C   0  0  0  0  0  0  0  0  0  0  0  0
    1.1714    1.2103   -0.4694 C   0  0  0  0  0  0  0  0  0  0  0  0
    0.5039    0.1635    0.1996 C   0  0  0  0  0  0  0  0  0  0  0  0
   -2.5916   -1.0894   -1.1038 H   0  0  0  0  0  0  0  0  0  0  0  0
   -3.3202    1.6474   -1.0917 H   0  0  0  0  0  0  0  0  0  0  0  0
   -1.8118    0.9805   -1.7366 H   0  0  0  0  0  0  0  0  0  0  0  0
   -1.6747    1.9100    0.6699 H   0  0  0  0  0  0  0  0  0  0  0  0
   -2.7894    0.6335    1.1664 H   0  0  0  0  0  0  0  0  0  0  0  0
   -1.7009   -1.8226    1.7046 H   0  0  0  0  0  0  0  0  0  0  0  0
    0.6346   -2.7200    1.5859 H   0  0  0  0  0  0  0  0  0  0  0  0
    3.1600   -1.9819    0.6013 H   0  0  0  0  0  0  0  0  0  0  0  0
    4.3062   -0.1191   -0.5839 H   0  0  0  0  0  0  0  0  0  0  0  0
    3.0539    1.8994   -1.2596 H   0  0  0  0  0  0  0  0  0  0  0  0
    0.6341    2.1044   -0.7707 H   0  0  0  0  0  0  0  0  0  0  0  0
  1  2  1  0
  2  3  1  0
  3  4  1  0
  4  5  2  0
  5  6  1  0
  6  7  1  0
  7  8  2  0
  8  9  1  0
  9 10  2  0
 10 11  1  0
 11 12  2  0
 12  4  1  0
 12  7  1  0
  1 13  1  0
  2 14  1  0
  2 15  1  0
  3 16  1  0
  3 17  1  0
  5 18  1  0
  6 19  1  0
  8 20  1  0
  9 21  1  0
 10 22  1  0
 11 23  1  0
M  END
>  <coordinate_phase>  (25) 
MMFF94_after_optimization_status_retained

>  <molecule_id>  (25) 
tryptophol

>  <seed>  (25) 
20260930

>  <conformer_id>  (25) 
24

>  <optimization_status>  (25) 
0

>  <energy_kcal_mol>  (25) 
25.001406339890064

>  <sasa_A2>  (25) 
356.9329334194744

>  <sasa_orientation_sd_A2>  (25) 
1.3794866604843548

>  <sasa_orientation_range_A2>  (25) 
6.31492501279547

>  <sasa_first_half_vs_all_abs_delta_A2>  (25) 
0.01743373529711789

>  <mass_weighted_Rg_A>  (25) 
2.4917686299196604

>  <unweighted_Rg_A>  (25) 
2.866454708048586

$$$$
tryptophol_20260930_25
     RDKit          3D

 23 24  0  0  0  0  0  0  0  0999 V2000
    2.5361   -1.6284    0.1848 O   0  0  0  0  0  0  0  0  0  0  0  0
    2.9544   -0.2789    0.3736 C   0  0  0  0  0  0  0  0  0  0  0  0
    1.8938    0.5371    1.1128 C   0  0  0  0  0  0  0  0  0  0  0  0
    0.6906    0.8233    0.2648 C   0  0  0  0  0  0  0  0  0  0  0  0
    0.5229    1.9038   -0.5800 C   0  0  0  0  0  0  0  0  0  0  0  0
   -0.7060    1.7997   -1.1741 N   0  0  0  0  0  0  0  0  0  0  0  0
   -1.3510    0.6664   -0.7384 C   0  0  0  0  0  0  0  0  0  0  0  0
   -2.6114    0.1596   -1.0771 C   0  0  0  0  0  0  0  0  0  0  0  0
   -3.0167   -1.0307   -0.4665 C   0  0  0  0  0  0  0  0  0  0  0  0
   -2.1935   -1.6849    0.4464 C   0  0  0  0  0  0  0  0  0  0  0  0
   -0.9367   -1.1635    0.7742 C   0  0  0  0  0  0  0  0  0  0  0  0
   -0.5026    0.0355    0.1715 C   0  0  0  0  0  0  0  0  0  0  0  0
    1.7318   -1.5968   -0.3656 H   0  0  0  0  0  0  0  0  0  0  0  0
    3.1952    0.1513   -0.6044 H   0  0  0  0  0  0  0  0  0  0  0  0
    3.8743   -0.3074    0.9660 H   0  0  0  0  0  0  0  0  0  0  0  0
    1.5806    0.0045    2.0186 H   0  0  0  0  0  0  0  0  0  0  0  0
    2.3341    1.4893    1.4332 H   0  0  0  0  0  0  0  0  0  0  0  0
    1.1731    2.7383   -0.8070 H   0  0  0  0  0  0  0  0  0  0  0  0
   -1.0907    2.4571   -1.8381 H   0  0  0  0  0  0  0  0  0  0  0  0
   -3.2564    0.6674   -1.7866 H   0  0  0  0  0  0  0  0  0  0  0  0
   -3.9906   -1.4508   -0.7077 H   0  0  0  0  0  0  0  0  0  0  0  0
   -2.5280   -2.6091    0.9113 H   0  0  0  0  0  0  0  0  0  0  0  0
   -0.3034   -1.6830    1.4882 H   0  0  0  0  0  0  0  0  0  0  0  0
  1  2  1  0
  2  3  1  0
  3  4  1  0
  4  5  2  0
  5  6  1  0
  6  7  1  0
  7  8  2  0
  8  9  1  0
  9 10  2  0
 10 11  1  0
 11 12  2  0
 12  4  1  0
 12  7  1  0
  1 13  1  0
  2 14  1  0
  2 15  1  0
  3 16  1  0
  3 17  1  0
  5 18  1  0
  6 19  1  0
  8 20  1  0
  9 21  1  0
 10 22  1  0
 11 23  1  0
M  END
>  <coordinate_phase>  (26) 
MMFF94_after_optimization_status_retained

>  <molecule_id>  (26) 
tryptophol

>  <seed>  (26) 
20260930

>  <conformer_id>  (26) 
25

>  <optimization_status>  (26) 
0

>  <energy_kcal_mol>  (26) 
24.617422455659682

>  <sasa_A2>  (26) 
355.5371360503954

>  <sasa_orientation_sd_A2>  (26) 
1.2891957649900956

>  <sasa_orientation_range_A2>  (26) 
5.25195624397054

>  <sasa_first_half_vs_all_abs_delta_A2>  (26) 
0.04750573477565467

>  <mass_weighted_Rg_A>  (26) 
2.435960181241341

>  <unweighted_Rg_A>  (26) 
2.8483158093087035

$$$$
tryptophol_20260930_26
     RDKit          3D

 23 24  0  0  0  0  0  0  0  0999 V2000
    2.9335    0.5078    0.5045 O   0  0  0  0  0  0  0  0  0  0  0  0
    2.8957   -0.2362   -0.7107 C   0  0  0  0  0  0  0  0  0  0  0  0
    1.6554    0.1049   -1.5369 C   0  0  0  0  0  0  0  0  0  0  0  0
    0.3938   -0.4395   -0.9362 C   0  0  0  0  0  0  0  0  0  0  0  0
   -0.1484   -1.6897   -1.1649 C   0  0  0  0  0  0  0  0  0  0  0  0
   -1.2975   -1.8022   -0.4295 N   0  0  0  0  0  0  0  0  0  0  0  0
   -1.5210   -0.6484    0.2839 C   0  0  0  0  0  0  0  0  0  0  0  0
   -2.5591   -0.3190    1.1638 C   0  0  0  0  0  0  0  0  0  0  0  0
   -2.5311    0.9479    1.7538 C   0  0  0  0  0  0  0  0  0  0  0  0
   -1.5060    1.8475    1.4724 C   0  0  0  0  0  0  0  0  0  0  0  0
   -0.4766    1.5020    0.5895 C   0  0  0  0  0  0  0  0  0  0  0  0
   -0.4799    0.2293   -0.0185 C   0  0  0  0  0  0  0  0  0  0  0  0
    2.1428    0.2504    1.0139 H   0  0  0  0  0  0  0  0  0  0  0  0
    2.9463   -1.3029   -0.4678 H   0  0  0  0  0  0  0  0  0  0  0  0
    3.7960    0.0249   -1.2756 H   0  0  0  0  0  0  0  0  0  0  0  0
    1.5670    1.1928   -1.6416 H   0  0  0  0  0  0  0  0  0  0  0  0
    1.7729   -0.3088   -2.5459 H   0  0  0  0  0  0  0  0  0  0  0  0
    0.1852   -2.5075   -1.7899 H   0  0  0  0  0  0  0  0  0  0  0  0
   -1.9000   -2.6131   -0.4088 H   0  0  0  0  0  0  0  0  0  0  0  0
   -3.3604   -1.0166    1.3840 H   0  0  0  0  0  0  0  0  0  0  0  0
   -3.3231    1.2350    2.4418 H   0  0  0  0  0  0  0  0  0  0  0  0
   -1.5033    2.8286    1.9409 H   0  0  0  0  0  0  0  0  0  0  0  0
    0.3177    2.2127    0.3778 H   0  0  0  0  0  0  0  0  0  0  0  0
  1  2  1  0
  2  3  1  0
  3  4  1  0
  4  5  2  0
  5  6  1  0
  6  7  1  0
  7  8  2  0
  8  9  1  0
  9 10  2  0
 10 11  1  0
 11 12  2  0
 12  4  1  0
 12  7  1  0
  1 13  1  0
  2 14  1  0
  2 15  1  0
  3 16  1  0
  3 17  1  0
  5 18  1  0
  6 19  1  0
  8 20  1  0
  9 21  1  0
 10 22  1  0
 11 23  1  0
M  END
>  <coordinate_phase>  (27) 
MMFF94_after_optimization_status_retained

>  <molecule_id>  (27) 
tryptophol

>  <seed>  (27) 
20260930

>  <conformer_id>  (27) 
26

>  <optimization_status>  (27) 
0

>  <energy_kcal_mol>  (27) 
24.617422468257125

>  <sasa_A2>  (27) 
355.57311419885156

>  <sasa_orientation_sd_A2>  (27) 
1.3572894005119762

>  <sasa_orientation_range_A2>  (27) 
6.050809915153025

>  <sasa_first_half_vs_all_abs_delta_A2>  (27) 
0.09204394233267976

>  <mass_weighted_Rg_A>  (27) 
2.4359633948038346

>  <unweighted_Rg_A>  (27) 
2.8483182915153247

$$$$
tryptophol_20260930_27
     RDKit          3D

 23 24  0  0  0  0  0  0  0  0999 V2000
   -2.7869    0.2978    1.1234 O   0  0  0  0  0  0  0  0  0  0  0  0
   -2.8825    0.7677   -0.2189 C   0  0  0  0  0  0  0  0  0  0  0  0
   -1.5940    1.4611   -0.6617 C   0  0  0  0  0  0  0  0  0  0  0  0
   -0.4634    0.4987   -0.8726 C   0  0  0  0  0  0  0  0  0  0  0  0
   -0.1672   -0.1721   -2.0436 C   0  0  0  0  0  0  0  0  0  0  0  0
    0.9341   -0.9552   -1.8251 N   0  0  0  0  0  0  0  0  0  0  0  0
    1.3678   -0.8154   -0.5280 C   0  0  0  0  0  0  0  0  0  0  0  0
    2.4431   -1.4207    0.1335 C   0  0  0  0  0  0  0  0  0  0  0  0
    2.6523   -1.0834    1.4738 C   0  0  0  0  0  0  0  0  0  0  0  0
    1.8192   -0.1762    2.1234 C   0  0  0  0  0  0  0  0  0  0  0  0
    0.7493    0.4203    1.4465 C   0  0  0  0  0  0  0  0  0  0  0  0
    0.5149    0.0964    0.0940 C   0  0  0  0  0  0  0  0  0  0  0  0
   -2.0634   -0.3558    1.1394 H   0  0  0  0  0  0  0  0  0  0  0  0
   -3.1369   -0.0780   -0.8667 H   0  0  0  0  0  0  0  0  0  0  0  0
   -3.7126    1.4803   -0.2516 H   0  0  0  0  0  0  0  0  0  0  0  0
   -1.7806    1.9972   -1.6002 H   0  0  0  0  0  0  0  0  0  0  0  0
   -1.2995    2.2085    0.0847 H   0  0  0  0  0  0  0  0  0  0  0  0
   -0.6458   -0.1569   -3.0140 H   0  0  0  0  0  0  0  0  0  0  0  0
    1.3712   -1.5525   -2.5130 H   0  0  0  0  0  0  0  0  0  0  0  0
    3.0955   -2.1266   -0.3698 H   0  0  0  0  0  0  0  0  0  0  0  0
    3.4794   -1.5358    2.0163 H   0  0  0  0  0  0  0  0  0  0  0  0
    1.9998    0.0737    3.1660 H   0  0  0  0  0  0  0  0  0  0  0  0
    0.1063    1.1269    1.9643 H   0  0  0  0  0  0  0  0  0  0  0  0
  1  2  1  0
  2  3  1  0
  3  4  1  0
  4  5  2  0
  5  6  1  0
  6  7  1  0
  7  8  2  0
  8  9  1  0
  9 10  2  0
 10 11  1  0
 11 12  2  0
 12  4  1  0
 12  7  1  0
  1 13  1  0
  2 14  1  0
  2 15  1  0
  3 16  1  0
  3 17  1  0
  5 18  1  0
  6 19  1  0
  8 20  1  0
  9 21  1  0
 10 22  1  0
 11 23  1  0
M  END
>  <coordinate_phase>  (28) 
MMFF94_after_optimization_status_retained

>  <molecule_id>  (28) 
tryptophol

>  <seed>  (28) 
20260930

>  <conformer_id>  (28) 
27

>  <optimization_status>  (28) 
0

>  <energy_kcal_mol>  (28) 
24.61742248655447

>  <sasa_A2>  (28) 
355.14959038607145

>  <sasa_orientation_sd_A2>  (28) 
1.3706008390487574

>  <sasa_orientation_range_A2>  (28) 
6.096873949038979

>  <sasa_first_half_vs_all_abs_delta_A2>  (28) 
0.16510522370498393

>  <mass_weighted_Rg_A>  (28) 
2.4359614647292784

>  <unweighted_Rg_A>  (28) 
2.8483178064357215

$$$$
tryptophol_20260930_28
     RDKit          3D

 23 24  0  0  0  0  0  0  0  0999 V2000
   -2.3750   -1.5158   -1.1219 O   0  0  0  0  0  0  0  0  0  0  0  0
   -2.8111   -0.2925   -0.5341 C   0  0  0  0  0  0  0  0  0  0  0  0
   -2.0863   -0.0392    0.7876 C   0  0  0  0  0  0  0  0  0  0  0  0
   -0.7398    0.5977    0.6056 C   0  0  0  0  0  0  0  0  0  0  0  0
   -0.4435    1.9394    0.7582 C   0  0  0  0  0  0  0  0  0  0  0  0
    0.8926    2.1156    0.5185 N   0  0  0  0  0  0  0  0  0  0  0  0
    1.4844    0.9140    0.2098 C   0  0  0  0  0  0  0  0  0  0  0  0
    2.8172    0.6181   -0.1021 C   0  0  0  0  0  0  0  0  0  0  0  0
    3.1380   -0.7143   -0.3778 C   0  0  0  0  0  0  0  0  0  0  0  0
    2.1631   -1.7081   -0.3431 C   0  0  0  0  0  0  0  0  0  0  0  0
    0.8360   -1.3938   -0.0286 C   0  0  0  0  0  0  0  0  0  0  0  0
    0.4847   -0.0581    0.2551 C   0  0  0  0  0  0  0  0  0  0  0  0
   -2.7154   -1.5289   -2.0325 H   0  0  0  0  0  0  0  0  0  0  0  0
   -3.8860   -0.3910   -0.3516 H   0  0  0  0  0  0  0  0  0  0  0  0
   -2.6510    0.5228   -1.2479 H   0  0  0  0  0  0  0  0  0  0  0  0
   -1.9710   -0.9763    1.3453 H   0  0  0  0  0  0  0  0  0  0  0  0
   -2.7016    0.6304    1.4018 H   0  0  0  0  0  0  0  0  0  0  0  0
   -1.0695    2.7812    1.0221 H   0  0  0  0  0  0  0  0  0  0  0  0
    1.3819    2.9981    0.5637 H   0  0  0  0  0  0  0  0  0  0  0  0
    3.5787    1.3901   -0.1305 H   0  0  0  0  0  0  0  0  0  0  0  0
    4.1638   -0.9778   -0.6240 H   0  0  0  0  0  0  0  0  0  0  0  0
    2.4303   -2.7384   -0.5633 H   0  0  0  0  0  0  0  0  0  0  0  0
    0.0793   -2.1733   -0.0103 H   0  0  0  0  0  0  0  0  0  0  0  0
  1  2  1  0
  2  3  1  0
  3  4  1  0
  4  5  2  0
  5  6  1  0
  6  7  1  0
  7  8  2  0
  8  9  1  0
  9 10  2  0
 10 11  1  0
 11 12  2  0
 12  4  1  0
 12  7  1  0
  1 13  1  0
  2 14  1  0
  2 15  1  0
  3 16  1  0
  3 17  1  0
  5 18  1  0
  6 19  1  0
  8 20  1  0
  9 21  1  0
 10 22  1  0
 11 23  1  0
M  END
>  <coordinate_phase>  (29) 
MMFF94_after_optimization_status_retained

>  <molecule_id>  (29) 
tryptophol

>  <seed>  (29) 
20260930

>  <conformer_id>  (29) 
28

>  <optimization_status>  (29) 
0

>  <energy_kcal_mol>  (29) 
27.459106122320442

>  <sasa_A2>  (29) 
358.74143416083234

>  <sasa_orientation_sd_A2>  (29) 
2.2697703511385106

>  <sasa_orientation_range_A2>  (29) 
11.415354522698408

>  <sasa_first_half_vs_all_abs_delta_A2>  (29) 
0.4296846802721461

>  <mass_weighted_Rg_A>  (29) 
2.45019938119398

>  <unweighted_Rg_A>  (29) 
2.9026144487380754

$$$$
tryptophol_20260930_29
     RDKit          3D

 23 24  0  0  0  0  0  0  0  0999 V2000
    3.9613    0.9461    0.5207 O   0  0  0  0  0  0  0  0  0  0  0  0
    2.7113    0.2656    0.5988 C   0  0  0  0  0  0  0  0  0  0  0  0
    1.9407    0.4142   -0.7106 C   0  0  0  0  0  0  0  0  0  0  0  0
    0.6386   -0.3166   -0.6977 C   0  0  0  0  0  0  0  0  0  0  0  0
    0.3924   -1.5644   -1.2369 C   0  0  0  0  0  0  0  0  0  0  0  0
   -0.9219   -1.8771   -1.0158 N   0  0  0  0  0  0  0  0  0  0  0  0
   -1.5468   -0.8571   -0.3381 C   0  0  0  0  0  0  0  0  0  0  0  0
   -2.8726   -0.7427    0.0973 C   0  0  0  0  0  0  0  0  0  0  0  0
   -3.2345    0.4271    0.7716 C   0  0  0  0  0  0  0  0  0  0  0  0
   -2.3062    1.4399    0.9993 C   0  0  0  0  0  0  0  0  0  0  0  0
   -0.9848    1.3090    0.5566 C   0  0  0  0  0  0  0  0  0  0  0  0
   -0.5932    0.1387   -0.1259 C   0  0  0  0  0  0  0  0  0  0  0  0
    4.4928    0.4984   -0.1597 H   0  0  0  0  0  0  0  0  0  0  0  0
    2.9058   -0.7868    0.8327 H   0  0  0  0  0  0  0  0  0  0  0  0
    2.1491    0.6941    1.4350 H   0  0  0  0  0  0  0  0  0  0  0  0
    1.7737    1.4786   -0.9183 H   0  0  0  0  0  0  0  0  0  0  0  0
    2.5628    0.0548   -1.5405 H   0  0  0  0  0  0  0  0  0  0  0  0
    1.0399   -2.2552   -1.7606 H   0  0  0  0  0  0  0  0  0  0  0  0
   -1.3753   -2.7321   -1.3063 H   0  0  0  0  0  0  0  0  0  0  0  0
   -3.5986   -1.5295   -0.0789 H   0  0  0  0  0  0  0  0  0  0  0  0
   -4.2567    0.5472    1.1230 H   0  0  0  0  0  0  0  0  0  0  0  0
   -2.6081    2.3421    1.5255 H   0  0  0  0  0  0  0  0  0  0  0  0
   -0.2699    2.1058    0.7398 H   0  0  0  0  0  0  0  0  0  0  0  0
  1  2  1  0
  2  3  1  0
  3  4  1  0
  4  5  2  0
  5  6  1  0
  6  7  1  0
  7  8  2  0
  8  9  1  0
  9 10  2  0
 10 11  1  0
 11 12  2  0
 12  4  1  0
 12  7  1  0
  1 13  1  0
  2 14  1  0
  2 15  1  0
  3 16  1  0
  3 17  1  0
  5 18  1  0
  6 19  1  0
  8 20  1  0
  9 21  1  0
 10 22  1  0
 11 23  1  0
M  END
>  <coordinate_phase>  (30) 
MMFF94_after_optimization_status_retained

>  <molecule_id>  (30) 
tryptophol

>  <seed>  (30) 
20260930

>  <conformer_id>  (30) 
29

>  <optimization_status>  (30) 
0

>  <energy_kcal_mol>  (30) 
27.05815618708258

>  <sasa_A2>  (30) 
362.5761637950841

>  <sasa_orientation_sd_A2>  (30) 
2.018954054165201

>  <sasa_orientation_range_A2>  (30) 
8.658888056243143

>  <sasa_first_half_vs_all_abs_delta_A2>  (30) 
0.8955695092402038

>  <mass_weighted_Rg_A>  (30) 
2.613659854627961

>  <unweighted_Rg_A>  (30) 
2.9644532302204234

$$$$
tryptophol_20260930_30
     RDKit          3D

 23 24  0  0  0  0  0  0  0  0999 V2000
    3.1287    0.2008   -1.8401 O   0  0  0  0  0  0  0  0  0  0  0  0
    2.7951   -0.3501   -0.5678 C   0  0  0  0  0  0  0  0  0  0  0  0
    2.0407    0.6733    0.2801 C   0  0  0  0  0  0  0  0  0  0  0  0
    0.5942    0.7861   -0.0991 C   0  0  0  0  0  0  0  0  0  0  0  0
    0.0583    1.6606   -1.0242 C   0  0  0  0  0  0  0  0  0  0  0  0
   -1.2912    1.4493   -1.0875 N   0  0  0  0  0  0  0  0  0  0  0  0
   -1.6581    0.4500   -0.2170 C   0  0  0  0  0  0  0  0  0  0  0  0
   -2.9200   -0.0948    0.0501 C   0  0  0  0  0  0  0  0  0  0  0  0
   -2.9965   -1.1183    0.9990 C   0  0  0  0  0  0  0  0  0  0  0  0
   -1.8554   -1.5764    1.6527 C   0  0  0  0  0  0  0  0  0  0  0  0
   -0.6014   -1.0205    1.3730 C   0  0  0  0  0  0  0  0  0  0  0  0
   -0.4957    0.0138    0.4199 C   0  0  0  0  0  0  0  0  0  0  0  0
    3.4662   -0.5305   -2.3843 H   0  0  0  0  0  0  0  0  0  0  0  0
    2.2090   -1.2628   -0.7195 H   0  0  0  0  0  0  0  0  0  0  0  0
    3.7353   -0.6162   -0.0742 H   0  0  0  0  0  0  0  0  0  0  0  0
    2.5151    1.6582    0.1892 H   0  0  0  0  0  0  0  0  0  0  0  0
    2.1038    0.3800    1.3348 H   0  0  0  0  0  0  0  0  0  0  0  0
    0.5323    2.4073   -1.6479 H   0  0  0  0  0  0  0  0  0  0  0  0
   -1.9307    1.9498   -1.6881 H   0  0  0  0  0  0  0  0  0  0  0  0
   -3.8106    0.2604   -0.4576 H   0  0  0  0  0  0  0  0  0  0  0  0
   -3.9622   -1.5620    1.2297 H   0  0  0  0  0  0  0  0  0  0  0  0
   -1.9371   -2.3727    2.3882 H   0  0  0  0  0  0  0  0  0  0  0  0
    0.2803   -1.3854    1.8904 H   0  0  0  0  0  0  0  0  0  0  0  0
  1  2  1  0
  2  3  1  0
  3  4  1  0
  4  5  2  0
  5  6  1  0
  6  7  1  0
  7  8  2  0
  8  9  1  0
  9 10  2  0
 10 11  1  0
 11 12  2  0
 12  4  1  0
 12  7  1  0
  1 13  1  0
  2 14  1  0
  2 15  1  0
  3 16  1  0
  3 17  1  0
  5 18  1  0
  6 19  1  0
  8 20  1  0
  9 21  1  0
 10 22  1  0
 11 23  1  0
M  END
>  <coordinate_phase>  (31) 
MMFF94_after_optimization_status_retained

>  <molecule_id>  (31) 
tryptophol

>  <seed>  (31) 
20260930

>  <conformer_id>  (31) 
30

>  <optimization_status>  (31) 
0

>  <energy_kcal_mol>  (31) 
27.609508543377878

>  <sasa_A2>  (31) 
362.59034994585244

>  <sasa_orientation_sd_A2>  (31) 
1.766107856951362

>  <sasa_orientation_range_A2>  (31) 
7.032374464999634

>  <sasa_first_half_vs_all_abs_delta_A2>  (31) 
0.07203481048247795

>  <mass_weighted_Rg_A>  (31) 
2.539806155816232

>  <unweighted_Rg_A>  (31) 
2.9495523105730372

$$$$
tryptophol_20260930_31
     RDKit          3D

 23 24  0  0  0  0  0  0  0  0999 V2000
   -3.3231    1.0731    0.1967 O   0  0  0  0  0  0  0  0  0  0  0  0
   -2.7867    0.1423   -0.7406 C   0  0  0  0  0  0  0  0  0  0  0  0
   -2.0150   -0.9728   -0.0347 C   0  0  0  0  0  0  0  0  0  0  0  0
   -0.7322   -0.4929    0.5764 C   0  0  0  0  0  0  0  0  0  0  0  0
   -0.5171   -0.2125    1.9122 C   0  0  0  0  0  0  0  0  0  0  0  0
    0.7800    0.1964    2.0638 N   0  0  0  0  0  0  0  0  0  0  0  0
    1.4243    0.1943    0.8492 C   0  0  0  0  0  0  0  0  0  0  0  0
    2.7432    0.5374    0.5282 C   0  0  0  0  0  0  0  0  0  0  0  0
    3.1323    0.4341   -0.8103 C   0  0  0  0  0  0  0  0  0  0  0  0
    2.2369    0.0034   -1.7859 C   0  0  0  0  0  0  0  0  0  0  0  0
    0.9218   -0.3361   -1.4473 C   0  0  0  0  0  0  0  0  0  0  0  0
    0.5025   -0.2390   -0.1043 C   0  0  0  0  0  0  0  0  0  0  0  0
   -2.5637    1.4434    0.6825 H   0  0  0  0  0  0  0  0  0  0  0  0
   -3.6307   -0.2854   -1.2907 H   0  0  0  0  0  0  0  0  0  0  0  0
   -2.1613    0.6896   -1.4536 H   0  0  0  0  0  0  0  0  0  0  0  0
   -2.6434   -1.4115    0.7503 H   0  0  0  0  0  0  0  0  0  0  0  0
   -1.7897   -1.7693   -0.7536 H   0  0  0  0  0  0  0  0  0  0  0  0
   -1.1780   -0.2749    2.7672 H   0  0  0  0  0  0  0  0  0  0  0  0
    1.2102    0.4603    2.9393 H   0  0  0  0  0  0  0  0  0  0  0  0
    3.4442    0.8712    1.2862 H   0  0  0  0  0  0  0  0  0  0  0  0
    4.1503    0.6928   -1.0925 H   0  0  0  0  0  0  0  0  0  0  0  0
    2.5606   -0.0714   -2.8211 H   0  0  0  0  0  0  0  0  0  0  0  0
    0.2345   -0.6723   -2.2176 H   0  0  0  0  0  0  0  0  0  0  0  0
  1  2  1  0
  2  3  1  0
  3  4  1  0
  4  5  2  0
  5  6  1  0
  6  7  1  0
  7  8  2  0
  8  9  1  0
  9 10  2  0
 10 11  1  0
 11 12  2  0
 12  4  1  0
 12  7  1  0
  1 13  1  0
  2 14  1  0
  2 15  1  0
  3 16  1  0
  3 17  1  0
  5 18  1  0
  6 19  1  0
  8 20  1  0
  9 21  1  0
 10 22  1  0
 11 23  1  0
M  END
>  <coordinate_phase>  (32) 
MMFF94_after_optimization_status_retained

>  <molecule_id>  (32) 
tryptophol

>  <seed>  (32) 
20260930

>  <conformer_id>  (32) 
31

>  <optimization_status>  (32) 
0

>  <energy_kcal_mol>  (32) 
25.001406360751545

>  <sasa_A2>  (32) 
356.6143080500586

>  <sasa_orientation_sd_A2>  (32) 
2.82348266614573

>  <sasa_orientation_range_A2>  (32) 
14.549666289899733

>  <sasa_first_half_vs_all_abs_delta_A2>  (32) 
0.42308766470529235

>  <mass_weighted_Rg_A>  (32) 
2.4917725287592445

>  <unweighted_Rg_A>  (32) 
2.8664569015554116

$$$$
tryptophol_20260930_32
     RDKit          3D

 23 24  0  0  0  0  0  0  0  0999 V2000
   -3.6288    0.1935   -0.1214 O   0  0  0  0  0  0  0  0  0  0  0  0
   -2.7254   -0.9092   -0.0824 C   0  0  0  0  0  0  0  0  0  0  0  0
   -1.7227   -0.7426    1.0588 C   0  0  0  0  0  0  0  0  0  0  0  0
   -0.6145    0.2097    0.7217 C   0  0  0  0  0  0  0  0  0  0  0  0
   -0.6038    1.5694    0.9652 C   0  0  0  0  0  0  0  0  0  0  0  0
    0.5786    2.0812    0.5072 N   0  0  0  0  0  0  0  0  0  0  0  0
    1.3525    1.0815   -0.0338 C   0  0  0  0  0  0  0  0  0  0  0  0
    2.6245    1.1409   -0.6161 C   0  0  0  0  0  0  0  0  0  0  0  0
    3.1770   -0.0525   -1.0896 C   0  0  0  0  0  0  0  0  0  0  0  0
    2.4832   -1.2552   -0.9839 C   0  0  0  0  0  0  0  0  0  0  0  0
    1.2119   -1.2963   -0.3992 C   0  0  0  0  0  0  0  0  0  0  0  0
    0.6309   -0.1066    0.0872 C   0  0  0  0  0  0  0  0  0  0  0  0
   -4.1380    0.1118   -0.9453 H   0  0  0  0  0  0  0  0  0  0  0  0
   -3.3234   -1.8114    0.0813 H   0  0  0  0  0  0  0  0  0  0  0  0
   -2.2254   -0.9921   -1.0533 H   0  0  0  0  0  0  0  0  0  0  0  0
   -2.2374   -0.3919    1.9618 H   0  0  0  0  0  0  0  0  0  0  0  0
   -1.2844   -1.7195    1.2952 H   0  0  0  0  0  0  0  0  0  0  0  0
   -1.3476    2.2120    1.4178 H   0  0  0  0  0  0  0  0  0  0  0  0
    0.8483    3.0535    0.5536 H   0  0  0  0  0  0  0  0  0  0  0  0
    3.1673    2.0766   -0.6994 H   0  0  0  0  0  0  0  0  0  0  0  0
    4.1638   -0.0401   -1.5465 H   0  0  0  0  0  0  0  0  0  0  0  0
    2.9316   -2.1722   -1.3576 H   0  0  0  0  0  0  0  0  0  0  0  0
    0.6818   -2.2404   -0.3214 H   0  0  0  0  0  0  0  0  0  0  0  0
  1  2  1  0
  2  3  1  0
  3  4  1  0
  4  5  2  0
  5  6  1  0
  6  7  1  0
  7  8  2  0
  8  9  1  0
  9 10  2  0
 10 11  1  0
 11 12  2  0
 12  4  1  0
 12  7  1  0
  1 13  1  0
  2 14  1  0
  2 15  1  0
  3 16  1  0
  3 17  1  0
  5 18  1  0
  6 19  1  0
  8 20  1  0
  9 21  1  0
 10 22  1  0
 11 23  1  0
M  END
>  <coordinate_phase>  (33) 
MMFF94_after_optimization_status_retained

>  <molecule_id>  (33) 
tryptophol

>  <seed>  (33) 
20260930

>  <conformer_id>  (33) 
32

>  <optimization_status>  (33) 
0

>  <energy_kcal_mol>  (33) 
27.60950854128411

>  <sasa_A2>  (33) 
361.84810603231335

>  <sasa_orientation_sd_A2>  (33) 
1.626453497717284

>  <sasa_orientation_range_A2>  (33) 
5.691989757947283

>  <sasa_first_half_vs_all_abs_delta_A2>  (33) 
0.01339062598486862

>  <mass_weighted_Rg_A>  (33) 
2.5397998848343133

>  <unweighted_Rg_A>  (33) 
2.94954732605222

$$$$
