tryptophol_20260928_0
     RDKit          3D

 23 24  0  0  0  0  0  0  0  0999 V2000
    3.5488   -1.4129   -0.8356 O   0  0  0  0  0  0  0  0  0  0  0  0
    2.4640   -0.5898   -0.6971 C   0  0  0  0  0  0  0  0  0  0  0  0
    1.7928   -0.7000    0.6793 C   0  0  0  0  0  0  0  0  0  0  0  0
    0.6453    0.2410    0.6570 C   0  0  0  0  0  0  0  0  0  0  0  0
    0.5587    1.5022    1.2189 C   0  0  0  0  0  0  0  0  0  0  0  0
   -0.6617    1.9927    0.9433 N   0  0  0  0  0  0  0  0  0  0  0  0
   -1.3404    1.0614    0.2179 C   0  0  0  0  0  0  0  0  0  0  0  0
   -2.6348    1.0613   -0.3168 C   0  0  0  0  0  0  0  0  0  0  0  0
   -3.1142   -0.0343   -1.0297 C   0  0  0  0  0  0  0  0  0  0  0  0
   -2.3070   -1.1480   -1.2209 C   0  0  0  0  0  0  0  0  0  0  0  0
   -1.0140   -1.1514   -0.6892 C   0  0  0  0  0  0  0  0  0  0  0  0
   -0.5440   -0.0505    0.0239 C   0  0  0  0  0  0  0  0  0  0  0  0
    4.2636   -1.0891   -0.2278 H   0  0  0  0  0  0  0  0  0  0  0  0
    1.6719   -0.6929   -1.4527 H   0  0  0  0  0  0  0  0  0  0  0  0
    2.8645    0.4705   -0.7032 H   0  0  0  0  0  0  0  0  0  0  0  0
    1.3704   -1.7288    0.8412 H   0  0  0  0  0  0  0  0  0  0  0  0
    2.5038   -0.4821    1.4970 H   0  0  0  0  0  0  0  0  0  0  0  0
    1.3429    1.9900    1.7795 H   0  0  0  0  0  0  0  0  0  0  0  0
   -1.0436    2.9364    1.2309 H   0  0  0  0  0  0  0  0  0  0  0  0
   -3.2635    1.9465   -0.1612 H   0  0  0  0  0  0  0  0  0  0  0  0
   -4.0988   -0.0783   -1.4557 H   0  0  0  0  0  0  0  0  0  0  0  0
   -2.6571   -2.0281   -1.7765 H   0  0  0  0  0  0  0  0  0  0  0  0
   -0.3475   -2.0157   -0.8186 H   0  0  0  0  0  0  0  0  0  0  0  0
  1  2  1  0
  2  3  1  0
  3  4  1  0
  4  5  2  0
  5  6  1  0
  6  7  1  0
  7  8  2  0
  8  9  1  0
  9 10  2  0
 10 11  1  0
 11 12  2  0
 12  4  1  0
 12  7  1  0
  1 13  1  0
  2 14  1  0
  2 15  1  0
  3 16  1  0
  3 17  1  0
  5 18  1  0
  6 19  1  0
  8 20  1  0
  9 21  1  0
 10 22  1  0
 11 23  1  0
M  END
>  <coordinate_phase>  (1) 
ETKDG_before_MMFF

>  <molecule_id>  (1) 
tryptophol

>  <seed>  (1) 
20260928

>  <conformer_id>  (1) 
0

$$$$
tryptophol_20260928_1
     RDKit          3D

 23 24  0  0  0  0  0  0  0  0999 V2000
    2.3221    1.0881    0.0521 O   0  0  0  0  0  0  0  0  0  0  0  0
    2.7591   -0.1762    0.3229 C   0  0  0  0  0  0  0  0  0  0  0  0
    1.7158   -0.9061    1.1398 C   0  0  0  0  0  0  0  0  0  0  0  0
    0.4492   -0.9577    0.3339 C   0  0  0  0  0  0  0  0  0  0  0  0
    0.0520   -2.0184   -0.4263 C   0  0  0  0  0  0  0  0  0  0  0  0
   -1.1264   -1.7245   -1.0546 N   0  0  0  0  0  0  0  0  0  0  0  0
   -1.4428   -0.4751   -0.6682 C   0  0  0  0  0  0  0  0  0  0  0  0
   -2.5697    0.2684   -1.0445 C   0  0  0  0  0  0  0  0  0  0  0  0
   -2.7268    1.5618   -0.5266 C   0  0  0  0  0  0  0  0  0  0  0  0
   -1.7481    2.0517    0.3444 C   0  0  0  0  0  0  0  0  0  0  0  0
   -0.6494    1.3058    0.6999 C   0  0  0  0  0  0  0  0  0  0  0  0
   -0.4972    0.0345    0.1885 C   0  0  0  0  0  0  0  0  0  0  0  0
    2.9580    1.5914   -0.5232 H   0  0  0  0  0  0  0  0  0  0  0  0
    2.9352   -0.7100   -0.6385 H   0  0  0  0  0  0  0  0  0  0  0  0
    3.6878   -0.1960    0.9435 H   0  0  0  0  0  0  0  0  0  0  0  0
    1.5455   -0.2331    2.0330 H   0  0  0  0  0  0  0  0  0  0  0  0
    2.0412   -1.9181    1.4279 H   0  0  0  0  0  0  0  0  0  0  0  0
    0.6133   -2.9560   -0.5026 H   0  0  0  0  0  0  0  0  0  0  0  0
   -1.5866   -2.3937   -1.6711 H   0  0  0  0  0  0  0  0  0  0  0  0
   -3.2949   -0.1636   -1.7240 H   0  0  0  0  0  0  0  0  0  0  0  0
   -3.5920    2.1647   -0.7989 H   0  0  0  0  0  0  0  0  0  0  0  0
   -1.9308    3.0546    0.7083 H   0  0  0  0  0  0  0  0  0  0  0  0
    0.0857    1.7073    1.3841 H   0  0  0  0  0  0  0  0  0  0  0  0
  1  2  1  0
  2  3  1  0
  3  4  1  0
  4  5  2  0
  5  6  1  0
  6  7  1  0
  7  8  2  0
  8  9  1  0
  9 10  2  0
 10 11  1  0
 11 12  2  0
 12  4  1  0
 12  7  1  0
  1 13  1  0
  2 14  1  0
  2 15  1  0
  3 16  1  0
  3 17  1  0
  5 18  1  0
  6 19  1  0
  8 20  1  0
  9 21  1  0
 10 22  1  0
 11 23  1  0
M  END
>  <coordinate_phase>  (2) 
ETKDG_before_MMFF

>  <molecule_id>  (2) 
tryptophol

>  <seed>  (2) 
20260928

>  <conformer_id>  (2) 
1

$$$$
tryptophol_20260928_2
     RDKit          3D

 23 24  0  0  0  0  0  0  0  0999 V2000
   -3.8839    0.7354    0.3734 O   0  0  0  0  0  0  0  0  0  0  0  0
   -2.5826    0.3184    0.7344 C   0  0  0  0  0  0  0  0  0  0  0  0
   -1.9783   -0.2456   -0.5065 C   0  0  0  0  0  0  0  0  0  0  0  0
   -0.6067   -0.7522   -0.3604 C   0  0  0  0  0  0  0  0  0  0  0  0
   -0.1848   -2.0691   -0.2791 C   0  0  0  0  0  0  0  0  0  0  0  0
    1.1628   -2.1041   -0.1501 N   0  0  0  0  0  0  0  0  0  0  0  0
    1.5852   -0.8262   -0.1506 C   0  0  0  0  0  0  0  0  0  0  0  0
    2.8760   -0.3387   -0.0426 C   0  0  0  0  0  0  0  0  0  0  0  0
    3.0733    1.0446   -0.0668 C   0  0  0  0  0  0  0  0  0  0  0  0
    1.9798    1.9087   -0.1977 C   0  0  0  0  0  0  0  0  0  0  0  0
    0.6859    1.4168   -0.3060 C   0  0  0  0  0  0  0  0  0  0  0  0
    0.5219    0.0430   -0.2786 C   0  0  0  0  0  0  0  0  0  0  0  0
   -3.9059    1.0005   -0.5931 H   0  0  0  0  0  0  0  0  0  0  0  0
   -2.6059   -0.4002    1.5699 H   0  0  0  0  0  0  0  0  0  0  0  0
   -2.1074    1.2385    1.1226 H   0  0  0  0  0  0  0  0  0  0  0  0
   -2.6340   -1.1099   -0.7925 H   0  0  0  0  0  0  0  0  0  0  0  0
   -2.1016    0.4883   -1.3308 H   0  0  0  0  0  0  0  0  0  0  0  0
   -0.8612   -2.9348   -0.3164 H   0  0  0  0  0  0  0  0  0  0  0  0
    1.7550   -2.9703   -0.0657 H   0  0  0  0  0  0  0  0  0  0  0  0
    3.7440   -0.9748    0.0598 H   0  0  0  0  0  0  0  0  0  0  0  0
    4.0819    1.4350    0.0154 H   0  0  0  0  0  0  0  0  0  0  0  0
    2.1225    2.9836   -0.2174 H   0  0  0  0  0  0  0  0  0  0  0  0
   -0.1361    2.1132   -0.4053 H   0  0  0  0  0  0  0  0  0  0  0  0
  1  2  1  0
  2  3  1  0
  3  4  1  0
  4  5  2  0
  5  6  1  0
  6  7  1  0
  7  8  2  0
  8  9  1  0
  9 10  2  0
 10 11  1  0
 11 12  2  0
 12  4  1  0
 12  7  1  0
  1 13  1  0
  2 14  1  0
  2 15  1  0
  3 16  1  0
  3 17  1  0
  5 18  1  0
  6 19  1  0
  8 20  1  0
  9 21  1  0
 10 22  1  0
 11 23  1  0
M  END
>  <coordinate_phase>  (3) 
ETKDG_before_MMFF

>  <molecule_id>  (3) 
tryptophol

>  <seed>  (3) 
20260928

>  <conformer_id>  (3) 
2

$$$$
tryptophol_20260928_3
     RDKit          3D

 23 24  0  0  0  0  0  0  0  0999 V2000
    3.0368    0.1155    1.0289 O   0  0  0  0  0  0  0  0  0  0  0  0
    2.5273   -1.0494    0.4091 C   0  0  0  0  0  0  0  0  0  0  0  0
    1.8575   -0.6483   -0.8799 C   0  0  0  0  0  0  0  0  0  0  0  0
    0.7212    0.3000   -0.6263 C   0  0  0  0  0  0  0  0  0  0  0  0
    0.7084    1.6734   -0.7695 C   0  0  0  0  0  0  0  0  0  0  0  0
   -0.5259    2.1445   -0.4140 N   0  0  0  0  0  0  0  0  0  0  0  0
   -1.3023    1.0918   -0.0455 C   0  0  0  0  0  0  0  0  0  0  0  0
   -2.6301    1.0188    0.3967 C   0  0  0  0  0  0  0  0  0  0  0  0
   -3.1816   -0.2172    0.7067 C   0  0  0  0  0  0  0  0  0  0  0  0
   -2.4228   -1.3608    0.5784 C   0  0  0  0  0  0  0  0  0  0  0  0
   -1.1078   -1.2821    0.1409 C   0  0  0  0  0  0  0  0  0  0  0  0
   -0.5355   -0.0441   -0.1768 C   0  0  0  0  0  0  0  0  0  0  0  0
    3.6930    0.5591    0.4074 H   0  0  0  0  0  0  0  0  0  0  0  0
    1.8202   -1.4865    1.1438 H   0  0  0  0  0  0  0  0  0  0  0  0
    3.3555   -1.7377    0.1807 H   0  0  0  0  0  0  0  0  0  0  0  0
    2.5900   -0.1411   -1.5370 H   0  0  0  0  0  0  0  0  0  0  0  0
    1.5062   -1.5718   -1.4267 H   0  0  0  0  0  0  0  0  0  0  0  0
    1.5311    2.2936   -1.1066 H   0  0  0  0  0  0  0  0  0  0  0  0
   -0.8358    3.1511   -0.4183 H   0  0  0  0  0  0  0  0  0  0  0  0
   -3.2121    1.9361    0.4915 H   0  0  0  0  0  0  0  0  0  0  0  0
   -4.2168   -0.2809    1.0522 H   0  0  0  0  0  0  0  0  0  0  0  0
   -2.8852   -2.2973    0.8284 H   0  0  0  0  0  0  0  0  0  0  0  0
   -0.4912   -2.1666    0.0360 H   0  0  0  0  0  0  0  0  0  0  0  0
  1  2  1  0
  2  3  1  0
  3  4  1  0
  4  5  2  0
  5  6  1  0
  6  7  1  0
  7  8  2  0
  8  9  1  0
  9 10  2  0
 10 11  1  0
 11 12  2  0
 12  4  1  0
 12  7  1  0
  1 13  1  0
  2 14  1  0
  2 15  1  0
  3 16  1  0
  3 17  1  0
  5 18  1  0
  6 19  1  0
  8 20  1  0
  9 21  1  0
 10 22  1  0
 11 23  1  0
M  END
>  <coordinate_phase>  (4) 
ETKDG_before_MMFF

>  <molecule_id>  (4) 
tryptophol

>  <seed>  (4) 
20260928

>  <conformer_id>  (4) 
3

$$$$
tryptophol_20260928_4
     RDKit          3D

 23 24  0  0  0  0  0  0  0  0999 V2000
    3.1305    1.0216   -0.7139 O   0  0  0  0  0  0  0  0  0  0  0  0
    3.0819   -0.1217    0.0455 C   0  0  0  0  0  0  0  0  0  0  0  0
    1.8140   -0.9029   -0.0275 C   0  0  0  0  0  0  0  0  0  0  0  0
    0.5987   -0.1683    0.3971 C   0  0  0  0  0  0  0  0  0  0  0  0
    0.5619    0.7327    1.4141 C   0  0  0  0  0  0  0  0  0  0  0  0
   -0.7044    1.2114    1.5316 N   0  0  0  0  0  0  0  0  0  0  0  0
   -1.4498    0.5917    0.5699 C   0  0  0  0  0  0  0  0  0  0  0  0
   -2.7788    0.7026    0.2629 C   0  0  0  0  0  0  0  0  0  0  0  0
   -3.3366   -0.0428   -0.7625 C   0  0  0  0  0  0  0  0  0  0  0  0
   -2.5229   -0.9156   -1.4859 C   0  0  0  0  0  0  0  0  0  0  0  0
   -1.1659   -1.0168   -1.1582 C   0  0  0  0  0  0  0  0  0  0  0  0
   -0.6626   -0.2688   -0.1477 C   0  0  0  0  0  0  0  0  0  0  0  0
    3.7148    1.7233   -0.2999 H   0  0  0  0  0  0  0  0  0  0  0  0
    3.2621    0.0798    1.1365 H   0  0  0  0  0  0  0  0  0  0  0  0
    3.9082   -0.8144   -0.2541 H   0  0  0  0  0  0  0  0  0  0  0  0
    1.8792   -1.8215    0.5700 H   0  0  0  0  0  0  0  0  0  0  0  0
    1.6296   -1.1480   -1.1225 H   0  0  0  0  0  0  0  0  0  0  0  0
    1.3699    1.0772    2.0780 H   0  0  0  0  0  0  0  0  0  0  0  0
   -1.0543    1.9304    2.2335 H   0  0  0  0  0  0  0  0  0  0  0  0
   -3.4666    1.3660    0.7930 H   0  0  0  0  0  0  0  0  0  0  0  0
   -4.3573   -0.0042   -1.0483 H   0  0  0  0  0  0  0  0  0  0  0  0
   -2.9481   -1.5108   -2.2991 H   0  0  0  0  0  0  0  0  0  0  0  0
   -0.5036   -1.7010   -1.7122 H   0  0  0  0  0  0  0  0  0  0  0  0
  1  2  1  0
  2  3  1  0
  3  4  1  0
  4  5  2  0
  5  6  1  0
  6  7  1  0
  7  8  2  0
  8  9  1  0
  9 10  2  0
 10 11  1  0
 11 12  2  0
 12  4  1  0
 12  7  1  0
  1 13  1  0
  2 14  1  0
  2 15  1  0
  3 16  1  0
  3 17  1  0
  5 18  1  0
  6 19  1  0
  8 20  1  0
  9 21  1  0
 10 22  1  0
 11 23  1  0
M  END
>  <coordinate_phase>  (5) 
ETKDG_before_MMFF

>  <molecule_id>  (5) 
tryptophol

>  <seed>  (5) 
20260928

>  <conformer_id>  (5) 
4

$$$$
tryptophol_20260928_5
     RDKit          3D

 23 24  0  0  0  0  0  0  0  0999 V2000
   -4.2232    0.1940   -0.1502 O   0  0  0  0  0  0  0  0  0  0  0  0
   -3.0286   -0.4836    0.0391 C   0  0  0  0  0  0  0  0  0  0  0  0
   -1.9078    0.4341   -0.3785 C   0  0  0  0  0  0  0  0  0  0  0  0
   -0.5836   -0.2267   -0.2374 C   0  0  0  0  0  0  0  0  0  0  0  0
   -0.4584   -1.6077   -0.1883 C   0  0  0  0  0  0  0  0  0  0  0  0
    0.8542   -1.9301   -0.0818 N   0  0  0  0  0  0  0  0  0  0  0  0
    1.5342   -0.7843   -0.0648 C   0  0  0  0  0  0  0  0  0  0  0  0
    2.9125   -0.5615    0.0296 C   0  0  0  0  0  0  0  0  0  0  0  0
    3.3834    0.7318    0.0272 C   0  0  0  0  0  0  0  0  0  0  0  0
    2.4855    1.7979   -0.0675 C   0  0  0  0  0  0  0  0  0  0  0  0
    1.1204    1.6073   -0.1616 C   0  0  0  0  0  0  0  0  0  0  0  0
    0.6782    0.2946   -0.1580 C   0  0  0  0  0  0  0  0  0  0  0  0
   -4.1566    1.1325    0.2010 H   0  0  0  0  0  0  0  0  0  0  0  0
   -2.9047   -0.7782    1.1309 H   0  0  0  0  0  0  0  0  0  0  0  0
   -3.0535   -1.4465   -0.4937 H   0  0  0  0  0  0  0  0  0  0  0  0
   -1.8597    1.3061    0.3359 H   0  0  0  0  0  0  0  0  0  0  0  0
   -2.1147    0.8175   -1.3814 H   0  0  0  0  0  0  0  0  0  0  0  0
   -1.2346   -2.3632   -0.2207 H   0  0  0  0  0  0  0  0  0  0  0  0
    1.2703   -2.9035   -0.0234 H   0  0  0  0  0  0  0  0  0  0  0  0
    3.5643   -1.4200    0.0928 H   0  0  0  0  0  0  0  0  0  0  0  0
    4.4645    0.9240    0.0911 H   0  0  0  0  0  0  0  0  0  0  0  0
    2.8517    2.8395   -0.0681 H   0  0  0  0  0  0  0  0  0  0  0  0
    0.4061    2.4260   -0.2327 H   0  0  0  0  0  0  0  0  0  0  0  0
  1  2  1  0
  2  3  1  0
  3  4  1  0
  4  5  2  0
  5  6  1  0
  6  7  1  0
  7  8  2  0
  8  9  1  0
  9 10  2  0
 10 11  1  0
 11 12  2  0
 12  4  1  0
 12  7  1  0
  1 13  1  0
  2 14  1  0
  2 15  1  0
  3 16  1  0
  3 17  1  0
  5 18  1  0
  6 19  1  0
  8 20  1  0
  9 21  1  0
 10 22  1  0
 11 23  1  0
M  END
>  <coordinate_phase>  (6) 
ETKDG_before_MMFF

>  <molecule_id>  (6) 
tryptophol

>  <seed>  (6) 
20260928

>  <conformer_id>  (6) 
5

$$$$
tryptophol_20260928_6
     RDKit          3D

 23 24  0  0  0  0  0  0  0  0999 V2000
   -3.2155    0.0559    1.1792 O   0  0  0  0  0  0  0  0  0  0  0  0
   -3.1384   -0.0686   -0.1974 C   0  0  0  0  0  0  0  0  0  0  0  0
   -1.8327    0.5453   -0.6540 C   0  0  0  0  0  0  0  0  0  0  0  0
   -0.7305   -0.1743   -0.0081 C   0  0  0  0  0  0  0  0  0  0  0  0
   -0.7258   -1.2324    0.8738 C   0  0  0  0  0  0  0  0  0  0  0  0
    0.5412   -1.5655    1.2045 N   0  0  0  0  0  0  0  0  0  0  0  0
    1.3893   -0.7386    0.5508 C   0  0  0  0  0  0  0  0  0  0  0  0
    2.7704   -0.6614    0.5443 C   0  0  0  0  0  0  0  0  0  0  0  0
    3.3420    0.3113   -0.2424 C   0  0  0  0  0  0  0  0  0  0  0  0
    2.6061    1.1899   -1.0055 C   0  0  0  0  0  0  0  0  0  0  0  0
    1.2237    1.1078   -0.9949 C   0  0  0  0  0  0  0  0  0  0  0  0
    0.6157    0.1360   -0.2105 C   0  0  0  0  0  0  0  0  0  0  0  0
   -2.8037    0.9071    1.4656 H   0  0  0  0  0  0  0  0  0  0  0  0
   -3.2141   -1.1399   -0.4982 H   0  0  0  0  0  0  0  0  0  0  0  0
   -3.9427    0.4641   -0.7485 H   0  0  0  0  0  0  0  0  0  0  0  0
   -1.7798    0.5290   -1.7615 H   0  0  0  0  0  0  0  0  0  0  0  0
   -1.8576    1.6040   -0.2681 H   0  0  0  0  0  0  0  0  0  0  0  0
   -1.6393   -1.7102    1.2338 H   0  0  0  0  0  0  0  0  0  0  0  0
    0.8468   -2.3340    1.8577 H   0  0  0  0  0  0  0  0  0  0  0  0
    3.3370   -1.3560    1.1468 H   0  0  0  0  0  0  0  0  0  0  0  0
    4.4239    0.3966   -0.2682 H   0  0  0  0  0  0  0  0  0  0  0  0
    3.1292    1.9352   -1.6047 H   0  0  0  0  0  0  0  0  0  0  0  0
    0.6549    1.7988   -1.5946 H   0  0  0  0  0  0  0  0  0  0  0  0
  1  2  1  0
  2  3  1  0
  3  4  1  0
  4  5  2  0
  5  6  1  0
  6  7  1  0
  7  8  2  0
  8  9  1  0
  9 10  2  0
 10 11  1  0
 11 12  2  0
 12  4  1  0
 12  7  1  0
  1 13  1  0
  2 14  1  0
  2 15  1  0
  3 16  1  0
  3 17  1  0
  5 18  1  0
  6 19  1  0
  8 20  1  0
  9 21  1  0
 10 22  1  0
 11 23  1  0
M  END
>  <coordinate_phase>  (7) 
ETKDG_before_MMFF

>  <molecule_id>  (7) 
tryptophol

>  <seed>  (7) 
20260928

>  <conformer_id>  (7) 
6

$$$$
tryptophol_20260928_7
     RDKit          3D

 23 24  0  0  0  0  0  0  0  0999 V2000
    2.8855   -0.3048    1.0260 O   0  0  0  0  0  0  0  0  0  0  0  0
    2.3009    0.9591    0.9534 C   0  0  0  0  0  0  0  0  0  0  0  0
    1.7853    1.1048   -0.4781 C   0  0  0  0  0  0  0  0  0  0  0  0
    0.7948    0.0211   -0.6910 C   0  0  0  0  0  0  0  0  0  0  0  0
    0.9241   -1.1794   -1.3575 C   0  0  0  0  0  0  0  0  0  0  0  0
   -0.2552   -1.8701   -1.2942 N   0  0  0  0  0  0  0  0  0  0  0  0
   -1.1553   -1.1400   -0.5964 C   0  0  0  0  0  0  0  0  0  0  0  0
   -2.4711   -1.2975   -0.2127 C   0  0  0  0  0  0  0  0  0  0  0  0
   -3.1683   -0.3580    0.5171 C   0  0  0  0  0  0  0  0  0  0  0  0
   -2.5298    0.8311    0.9037 C   0  0  0  0  0  0  0  0  0  0  0  0
   -1.1951    1.0134    0.5265 C   0  0  0  0  0  0  0  0  0  0  0  0
   -0.5188    0.0466   -0.2101 C   0  0  0  0  0  0  0  0  0  0  0  0
    3.8421   -0.1897    0.7147 H   0  0  0  0  0  0  0  0  0  0  0  0
    2.9718    1.7872    1.2242 H   0  0  0  0  0  0  0  0  0  0  0  0
    1.4651    0.9519    1.6857 H   0  0  0  0  0  0  0  0  0  0  0  0
    2.5977    1.0474   -1.2263 H   0  0  0  0  0  0  0  0  0  0  0  0
    1.3282    2.1195   -0.5304 H   0  0  0  0  0  0  0  0  0  0  0  0
    1.8409   -1.5241   -1.8632 H   0  0  0  0  0  0  0  0  0  0  0  0
   -0.4458   -2.8097   -1.7095 H   0  0  0  0  0  0  0  0  0  0  0  0
   -3.0120   -2.2124   -0.4934 H   0  0  0  0  0  0  0  0  0  0  0  0
   -4.2200   -0.5189    0.8064 H   0  0  0  0  0  0  0  0  0  0  0  0
   -3.0625    1.5865    1.4760 H   0  0  0  0  0  0  0  0  0  0  0  0
   -0.7026    1.9362    0.8291 H   0  0  0  0  0  0  0  0  0  0  0  0
  1  2  1  0
  2  3  1  0
  3  4  1  0
  4  5  2  0
  5  6  1  0
  6  7  1  0
  7  8  2  0
  8  9  1  0
  9 10  2  0
 10 11  1  0
 11 12  2  0
 12  4  1  0
 12  7  1  0
  1 13  1  0
  2 14  1  0
  2 15  1  0
  3 16  1  0
  3 17  1  0
  5 18  1  0
  6 19  1  0
  8 20  1  0
  9 21  1  0
 10 22  1  0
 11 23  1  0
M  END
>  <coordinate_phase>  (8) 
ETKDG_before_MMFF

>  <molecule_id>  (8) 
tryptophol

>  <seed>  (8) 
20260928

>  <conformer_id>  (8) 
7

$$$$
tryptophol_20260928_8
     RDKit          3D

 23 24  0  0  0  0  0  0  0  0999 V2000
   -2.3628    1.4832   -0.0886 O   0  0  0  0  0  0  0  0  0  0  0  0
   -2.8345    0.1935   -0.2206 C   0  0  0  0  0  0  0  0  0  0  0  0
   -1.9622   -0.8331    0.4624 C   0  0  0  0  0  0  0  0  0  0  0  0
   -0.5819   -0.8800   -0.0213 C   0  0  0  0  0  0  0  0  0  0  0  0
   -0.1194   -1.8375   -0.9307 C   0  0  0  0  0  0  0  0  0  0  0  0
    1.1806   -1.6108   -1.1900 N   0  0  0  0  0  0  0  0  0  0  0  0
    1.5789   -0.5429   -0.4833 C   0  0  0  0  0  0  0  0  0  0  0  0
    2.8200    0.0899   -0.3991 C   0  0  0  0  0  0  0  0  0  0  0  0
    2.9388    1.1887    0.4322 C   0  0  0  0  0  0  0  0  0  0  0  0
    1.8693    1.6643    1.1681 C   0  0  0  0  0  0  0  0  0  0  0  0
    0.6448    1.0237    1.0712 C   0  0  0  0  0  0  0  0  0  0  0  0
    0.5038   -0.0729    0.2487 C   0  0  0  0  0  0  0  0  0  0  0  0
   -2.8900    2.0335   -0.7526 H   0  0  0  0  0  0  0  0  0  0  0  0
   -3.8331    0.1648    0.2999 H   0  0  0  0  0  0  0  0  0  0  0  0
   -2.9480   -0.0842   -1.2950 H   0  0  0  0  0  0  0  0  0  0  0  0
   -1.9665   -0.6579    1.5769 H   0  0  0  0  0  0  0  0  0  0  0  0
   -2.4749   -1.8197    0.3467 H   0  0  0  0  0  0  0  0  0  0  0  0
   -0.7264   -2.6460   -1.3655 H   0  0  0  0  0  0  0  0  0  0  0  0
    1.7684   -2.1794   -1.8353 H   0  0  0  0  0  0  0  0  0  0  0  0
    3.6824   -0.2589   -0.9661 H   0  0  0  0  0  0  0  0  0  0  0  0
    3.9234    1.6783    0.4961 H   0  0  0  0  0  0  0  0  0  0  0  0
    2.0142    2.5316    1.8029 H   0  0  0  0  0  0  0  0  0  0  0  0
   -0.2248    1.3716    1.6430 H   0  0  0  0  0  0  0  0  0  0  0  0
  1  2  1  0
  2  3  1  0
  3  4  1  0
  4  5  2  0
  5  6  1  0
  6  7  1  0
  7  8  2  0
  8  9  1  0
  9 10  2  0
 10 11  1  0
 11 12  2  0
 12  4  1  0
 12  7  1  0
  1 13  1  0
  2 14  1  0
  2 15  1  0
  3 16  1  0
  3 17  1  0
  5 18  1  0
  6 19  1  0
  8 20  1  0
  9 21  1  0
 10 22  1  0
 11 23  1  0
M  END
>  <coordinate_phase>  (9) 
ETKDG_before_MMFF

>  <molecule_id>  (9) 
tryptophol

>  <seed>  (9) 
20260928

>  <conformer_id>  (9) 
8

$$$$
tryptophol_20260928_9
     RDKit          3D

 23 24  0  0  0  0  0  0  0  0999 V2000
    3.3099    0.2648   -1.0216 O   0  0  0  0  0  0  0  0  0  0  0  0
    3.0681    0.4897    0.3330 C   0  0  0  0  0  0  0  0  0  0  0  0
    1.7904   -0.1977    0.7425 C   0  0  0  0  0  0  0  0  0  0  0  0
    0.6173    0.2847   -0.0069 C   0  0  0  0  0  0  0  0  0  0  0  0
    0.5699    1.2478   -0.9904 C   0  0  0  0  0  0  0  0  0  0  0  0
   -0.7159    1.3721   -1.4030 N   0  0  0  0  0  0  0  0  0  0  0  0
   -1.4870    0.4982   -0.6924 C   0  0  0  0  0  0  0  0  0  0  0  0
   -2.8409    0.2145   -0.7080 C   0  0  0  0  0  0  0  0  0  0  0  0
   -3.3560   -0.7399    0.1412 C   0  0  0  0  0  0  0  0  0  0  0  0
   -2.5188   -1.4183    1.0134 C   0  0  0  0  0  0  0  0  0  0  0  0
   -1.1635   -1.1586    1.0537 C   0  0  0  0  0  0  0  0  0  0  0  0
   -0.6711   -0.1972    0.1923 C   0  0  0  0  0  0  0  0  0  0  0  0
    3.7525   -0.6252   -1.1517 H   0  0  0  0  0  0  0  0  0  0  0  0
    3.0803    1.5621    0.5940 H   0  0  0  0  0  0  0  0  0  0  0  0
    3.9310    0.0333    0.8609 H   0  0  0  0  0  0  0  0  0  0  0  0
    1.6069   -0.1219    1.8337 H   0  0  0  0  0  0  0  0  0  0  0  0
    1.9199   -1.2870    0.5601 H   0  0  0  0  0  0  0  0  0  0  0  0
    1.4437    1.8011   -1.3544 H   0  0  0  0  0  0  0  0  0  0  0  0
   -1.0561    2.0379   -2.1515 H   0  0  0  0  0  0  0  0  0  0  0  0
   -3.4647    0.7701   -1.4085 H   0  0  0  0  0  0  0  0  0  0  0  0
   -4.4310   -0.9582    0.1217 H   0  0  0  0  0  0  0  0  0  0  0  0
   -2.8949   -2.1817    1.7007 H   0  0  0  0  0  0  0  0  0  0  0  0
   -0.4899   -1.6903    1.7411 H   0  0  0  0  0  0  0  0  0  0  0  0
  1  2  1  0
  2  3  1  0
  3  4  1  0
  4  5  2  0
  5  6  1  0
  6  7  1  0
  7  8  2  0
  8  9  1  0
  9 10  2  0
 10 11  1  0
 11 12  2  0
 12  4  1  0
 12  7  1  0
  1 13  1  0
  2 14  1  0
  2 15  1  0
  3 16  1  0
  3 17  1  0
  5 18  1  0
  6 19  1  0
  8 20  1  0
  9 21  1  0
 10 22  1  0
 11 23  1  0
M  END
>  <coordinate_phase>  (10) 
ETKDG_before_MMFF

>  <molecule_id>  (10) 
tryptophol

>  <seed>  (10) 
20260928

>  <conformer_id>  (10) 
9

$$$$
tryptophol_20260929_10
     RDKit          3D

 23 24  0  0  0  0  0  0  0  0999 V2000
   -3.5670    0.5747   -0.2201 O   0  0  0  0  0  0  0  0  0  0  0  0
   -2.9876   -0.6689   -0.3768 C   0  0  0  0  0  0  0  0  0  0  0  0
   -1.7258   -0.8230    0.4166 C   0  0  0  0  0  0  0  0  0  0  0  0
   -0.6625    0.1279    0.0915 C   0  0  0  0  0  0  0  0  0  0  0  0
   -0.7768    1.3726   -0.4512 C   0  0  0  0  0  0  0  0  0  0  0  0
    0.4614    1.8744   -0.5518 N   0  0  0  0  0  0  0  0  0  0  0  0
    1.3832    1.0195   -0.1029 C   0  0  0  0  0  0  0  0  0  0  0  0
    2.7700    1.0273    0.0231 C   0  0  0  0  0  0  0  0  0  0  0  0
    3.4529   -0.0595    0.5450 C   0  0  0  0  0  0  0  0  0  0  0  0
    2.7673   -1.1964    0.9636 C   0  0  0  0  0  0  0  0  0  0  0  0
    1.4082   -1.1757    0.8321 C   0  0  0  0  0  0  0  0  0  0  0  0
    0.7031   -0.0969    0.3091 C   0  0  0  0  0  0  0  0  0  0  0  0
   -4.3611    0.5832    0.3606 H   0  0  0  0  0  0  0  0  0  0  0  0
   -3.7130   -1.4021    0.1008 H   0  0  0  0  0  0  0  0  0  0  0  0
   -2.9250   -1.0137   -1.4263 H   0  0  0  0  0  0  0  0  0  0  0  0
   -1.9608   -0.8268    1.4957 H   0  0  0  0  0  0  0  0  0  0  0  0
   -1.3197   -1.8577    0.1814 H   0  0  0  0  0  0  0  0  0  0  0  0
   -1.6627    1.8807   -0.7468 H   0  0  0  0  0  0  0  0  0  0  0  0
    0.7025    2.8165   -0.9250 H   0  0  0  0  0  0  0  0  0  0  0  0
    3.2668    1.9239   -0.3065 H   0  0  0  0  0  0  0  0  0  0  0  0
    4.5342    0.0020    0.6221 H   0  0  0  0  0  0  0  0  0  0  0  0
    3.3434   -2.0192    1.3667 H   0  0  0  0  0  0  0  0  0  0  0  0
    0.8688   -2.0628    1.1624 H   0  0  0  0  0  0  0  0  0  0  0  0
  1  2  1  0
  2  3  1  0
  3  4  1  0
  4  5  2  0
  5  6  1  0
  6  7  1  0
  7  8  2  0
  8  9  1  0
  9 10  2  0
 10 11  1  0
 11 12  2  0
 12  4  1  0
 12  7  1  0
  1 13  1  0
  2 14  1  0
  2 15  1  0
  3 16  1  0
  3 17  1  0
  5 18  1  0
  6 19  1  0
  8 20  1  0
  9 21  1  0
 10 22  1  0
 11 23  1  0
M  END
>  <coordinate_phase>  (11) 
ETKDG_before_MMFF

>  <molecule_id>  (11) 
tryptophol

>  <seed>  (11) 
20260929

>  <conformer_id>  (11) 
10

$$$$
tryptophol_20260929_11
     RDKit          3D

 23 24  0  0  0  0  0  0  0  0999 V2000
   -3.8283    0.9495    0.0434 O   0  0  0  0  0  0  0  0  0  0  0  0
   -2.5848    0.3705   -0.1992 C   0  0  0  0  0  0  0  0  0  0  0  0
   -1.8650    0.1413    1.1369 C   0  0  0  0  0  0  0  0  0  0  0  0
   -0.5673   -0.4797    0.7971 C   0  0  0  0  0  0  0  0  0  0  0  0
   -0.3122   -1.8500    0.9351 C   0  0  0  0  0  0  0  0  0  0  0  0
    0.9503   -2.0292    0.5208 N   0  0  0  0  0  0  0  0  0  0  0  0
    1.5095   -0.8742    0.1326 C   0  0  0  0  0  0  0  0  0  0  0  0
    2.7657   -0.5503   -0.3625 C   0  0  0  0  0  0  0  0  0  0  0  0
    3.0872    0.7753   -0.6940 C   0  0  0  0  0  0  0  0  0  0  0  0
    2.1222    1.7724   -0.5193 C   0  0  0  0  0  0  0  0  0  0  0  0
    0.8700    1.4655   -0.0291 C   0  0  0  0  0  0  0  0  0  0  0  0
    0.5820    0.1379    0.2908 C   0  0  0  0  0  0  0  0  0  0  0  0
   -4.5029    0.2130    0.0776 H   0  0  0  0  0  0  0  0  0  0  0  0
   -1.9302    0.9706   -0.8380 H   0  0  0  0  0  0  0  0  0  0  0  0
   -2.7175   -0.6804   -0.5964 H   0  0  0  0  0  0  0  0  0  0  0  0
   -1.6701    1.1110    1.6303 H   0  0  0  0  0  0  0  0  0  0  0  0
   -2.4312   -0.4957    1.8259 H   0  0  0  0  0  0  0  0  0  0  0  0
   -1.0140   -2.6106    1.3083 H   0  0  0  0  0  0  0  0  0  0  0  0
    1.4430   -2.9600    0.5021 H   0  0  0  0  0  0  0  0  0  0  0  0
    3.5158   -1.3482   -0.4962 H   0  0  0  0  0  0  0  0  0  0  0  0
    4.0659    0.9648   -1.0682 H   0  0  0  0  0  0  0  0  0  0  0  0
    2.4013    2.7750   -0.7831 H   0  0  0  0  0  0  0  0  0  0  0  0
    0.1104    2.2313    0.1110 H   0  0  0  0  0  0  0  0  0  0  0  0
  1  2  1  0
  2  3  1  0
  3  4  1  0
  4  5  2  0
  5  6  1  0
  6  7  1  0
  7  8  2  0
  8  9  1  0
  9 10  2  0
 10 11  1  0
 11 12  2  0
 12  4  1  0
 12  7  1  0
  1 13  1  0
  2 14  1  0
  2 15  1  0
  3 16  1  0
  3 17  1  0
  5 18  1  0
  6 19  1  0
  8 20  1  0
  9 21  1  0
 10 22  1  0
 11 23  1  0
M  END
>  <coordinate_phase>  (12) 
ETKDG_before_MMFF

>  <molecule_id>  (12) 
tryptophol

>  <seed>  (12) 
20260929

>  <conformer_id>  (12) 
11

$$$$
tryptophol_20260929_12
     RDKit          3D

 23 24  0  0  0  0  0  0  0  0999 V2000
   -3.8096   -0.9111   -0.4956 O   0  0  0  0  0  0  0  0  0  0  0  0
   -2.5951   -0.2189   -0.3262 C   0  0  0  0  0  0  0  0  0  0  0  0
   -1.7684   -0.8403    0.8119 C   0  0  0  0  0  0  0  0  0  0  0  0
   -0.5328   -0.0492    0.9123 C   0  0  0  0  0  0  0  0  0  0  0  0
   -0.2695    0.9430    1.8663 C   0  0  0  0  0  0  0  0  0  0  0  0
    0.9609    1.4506    1.6198 N   0  0  0  0  0  0  0  0  0  0  0  0
    1.5018    0.8263    0.5475 C   0  0  0  0  0  0  0  0  0  0  0  0
    2.6964    0.9391   -0.1189 C   0  0  0  0  0  0  0  0  0  0  0  0
    2.9850    0.1457   -1.2087 C   0  0  0  0  0  0  0  0  0  0  0  0
    2.0856   -0.8062   -1.6885 C   0  0  0  0  0  0  0  0  0  0  0  0
    0.8833   -0.9240   -1.0239 C   0  0  0  0  0  0  0  0  0  0  0  0
    0.5876   -0.1208    0.0817 C   0  0  0  0  0  0  0  0  0  0  0  0
   -4.2356   -0.5896   -1.3036 H   0  0  0  0  0  0  0  0  0  0  0  0
   -2.0776   -0.3106   -1.3055 H   0  0  0  0  0  0  0  0  0  0  0  0
   -2.7802    0.8574   -0.1503 H   0  0  0  0  0  0  0  0  0  0  0  0
   -1.5552   -1.9106    0.5764 H   0  0  0  0  0  0  0  0  0  0  0  0
   -2.3425   -0.7667    1.7501 H   0  0  0  0  0  0  0  0  0  0  0  0
   -0.9411    1.2599    2.6798 H   0  0  0  0  0  0  0  0  0  0  0  0
    1.3688    2.2029    2.2041 H   0  0  0  0  0  0  0  0  0  0  0  0
    3.3953    1.6824    0.2583 H   0  0  0  0  0  0  0  0  0  0  0  0
    3.9237    0.2303   -1.7401 H   0  0  0  0  0  0  0  0  0  0  0  0
    2.3398   -1.4281   -2.5583 H   0  0  0  0  0  0  0  0  0  0  0  0
    0.1794   -1.6616   -1.3886 H   0  0  0  0  0  0  0  0  0  0  0  0
  1  2  1  0
  2  3  1  0
  3  4  1  0
  4  5  2  0
  5  6  1  0
  6  7  1  0
  7  8  2  0
  8  9  1  0
  9 10  2  0
 10 11  1  0
 11 12  2  0
 12  4  1  0
 12  7  1  0
  1 13  1  0
  2 14  1  0
  2 15  1  0
  3 16  1  0
  3 17  1  0
  5 18  1  0
  6 19  1  0
  8 20  1  0
  9 21  1  0
 10 22  1  0
 11 23  1  0
M  END
>  <coordinate_phase>  (13) 
ETKDG_before_MMFF

>  <molecule_id>  (13) 
tryptophol

>  <seed>  (13) 
20260929

>  <conformer_id>  (13) 
12

$$$$
tryptophol_20260929_13
     RDKit          3D

 23 24  0  0  0  0  0  0  0  0999 V2000
    2.2183    1.2961   -1.0154 O   0  0  0  0  0  0  0  0  0  0  0  0
    2.8058    0.2609   -0.3429 C   0  0  0  0  0  0  0  0  0  0  0  0
    2.0193   -0.2577    0.8314 C   0  0  0  0  0  0  0  0  0  0  0  0
    0.6710   -0.7537    0.4424 C   0  0  0  0  0  0  0  0  0  0  0  0
    0.2818   -2.0826    0.2370 C   0  0  0  0  0  0  0  0  0  0  0  0
   -1.0187   -2.1058   -0.1323 N   0  0  0  0  0  0  0  0  0  0  0  0
   -1.5067   -0.8539   -0.1791 C   0  0  0  0  0  0  0  0  0  0  0  0
   -2.7301   -0.2909   -0.4775 C   0  0  0  0  0  0  0  0  0  0  0  0
   -2.9303    1.0817   -0.4274 C   0  0  0  0  0  0  0  0  0  0  0  0
   -1.9071    1.9327   -0.0761 C   0  0  0  0  0  0  0  0  0  0  0  0
   -0.6637    1.3732    0.2279 C   0  0  0  0  0  0  0  0  0  0  0  0
   -0.4589    0.0051    0.1793 C   0  0  0  0  0  0  0  0  0  0  0  0
    1.7698    1.0656   -1.8679 H   0  0  0  0  0  0  0  0  0  0  0  0
    3.1333   -0.5728   -1.0127 H   0  0  0  0  0  0  0  0  0  0  0  0
    3.7842    0.6467    0.0716 H   0  0  0  0  0  0  0  0  0  0  0  0
    2.6050   -1.0423    1.3382 H   0  0  0  0  0  0  0  0  0  0  0  0
    1.9190    0.5628    1.5933 H   0  0  0  0  0  0  0  0  0  0  0  0
    0.9530   -2.9465    0.3623 H   0  0  0  0  0  0  0  0  0  0  0  0
   -1.5764   -2.9598   -0.3529 H   0  0  0  0  0  0  0  0  0  0  0  0
   -3.5326   -0.9721   -0.7565 H   0  0  0  0  0  0  0  0  0  0  0  0
   -3.8887    1.5205   -0.6607 H   0  0  0  0  0  0  0  0  0  0  0  0
   -2.0481    3.0084   -0.0311 H   0  0  0  0  0  0  0  0  0  0  0  0
    0.1008    2.0846    0.5014 H   0  0  0  0  0  0  0  0  0  0  0  0
  1  2  1  0
  2  3  1  0
  3  4  1  0
  4  5  2  0
  5  6  1  0
  6  7  1  0
  7  8  2  0
  8  9  1  0
  9 10  2  0
 10 11  1  0
 11 12  2  0
 12  4  1  0
 12  7  1  0
  1 13  1  0
  2 14  1  0
  2 15  1  0
  3 16  1  0
  3 17  1  0
  5 18  1  0
  6 19  1  0
  8 20  1  0
  9 21  1  0
 10 22  1  0
 11 23  1  0
M  END
>  <coordinate_phase>  (14) 
ETKDG_before_MMFF

>  <molecule_id>  (14) 
tryptophol

>  <seed>  (14) 
20260929

>  <conformer_id>  (14) 
13

$$$$
tryptophol_20260929_14
     RDKit          3D

 23 24  0  0  0  0  0  0  0  0999 V2000
    2.7649   -1.1881   -0.8511 O   0  0  0  0  0  0  0  0  0  0  0  0
    2.5204   -0.9265    0.5175 C   0  0  0  0  0  0  0  0  0  0  0  0
    1.9931    0.5101    0.5949 C   0  0  0  0  0  0  0  0  0  0  0  0
    0.7551    0.6173   -0.1896 C   0  0  0  0  0  0  0  0  0  0  0  0
    0.6640    1.1620   -1.4692 C   0  0  0  0  0  0  0  0  0  0  0  0
   -0.6262    1.0579   -1.8328 N   0  0  0  0  0  0  0  0  0  0  0  0
   -1.3390    0.4670   -0.8239 C   0  0  0  0  0  0  0  0  0  0  0  0
   -2.6830    0.1519   -0.7311 C   0  0  0  0  0  0  0  0  0  0  0  0
   -3.1802   -0.4577    0.4267 C   0  0  0  0  0  0  0  0  0  0  0  0
   -2.3302   -0.7437    1.4734 C   0  0  0  0  0  0  0  0  0  0  0  0
   -0.9751   -0.4276    1.3823 C   0  0  0  0  0  0  0  0  0  0  0  0
   -0.4872    0.1785    0.2281 C   0  0  0  0  0  0  0  0  0  0  0  0
    3.3846   -0.5046   -1.2064 H   0  0  0  0  0  0  0  0  0  0  0  0
    3.4297   -1.0289    1.1235 H   0  0  0  0  0  0  0  0  0  0  0  0
    1.6774   -1.5882    0.8330 H   0  0  0  0  0  0  0  0  0  0  0  0
    1.7807    0.7322    1.6644 H   0  0  0  0  0  0  0  0  0  0  0  0
    2.7394    1.1881    0.1921 H   0  0  0  0  0  0  0  0  0  0  0  0
    1.4385    1.5897   -2.0825 H   0  0  0  0  0  0  0  0  0  0  0  0
   -0.9855    1.3913   -2.7600 H   0  0  0  0  0  0  0  0  0  0  0  0
   -3.3173    0.3919   -1.5743 H   0  0  0  0  0  0  0  0  0  0  0  0
   -4.2514   -0.7058    0.4944 H   0  0  0  0  0  0  0  0  0  0  0  0
   -2.6902   -1.2176    2.3855 H   0  0  0  0  0  0  0  0  0  0  0  0
   -0.2826   -0.6492    2.2053 H   0  0  0  0  0  0  0  0  0  0  0  0
  1  2  1  0
  2  3  1  0
  3  4  1  0
  4  5  2  0
  5  6  1  0
  6  7  1  0
  7  8  2  0
  8  9  1  0
  9 10  2  0
 10 11  1  0
 11 12  2  0
 12  4  1  0
 12  7  1  0
  1 13  1  0
  2 14  1  0
  2 15  1  0
  3 16  1  0
  3 17  1  0
  5 18  1  0
  6 19  1  0
  8 20  1  0
  9 21  1  0
 10 22  1  0
 11 23  1  0
M  END
>  <coordinate_phase>  (15) 
ETKDG_before_MMFF

>  <molecule_id>  (15) 
tryptophol

>  <seed>  (15) 
20260929

>  <conformer_id>  (15) 
14

$$$$
tryptophol_20260929_15
     RDKit          3D

 23 24  0  0  0  0  0  0  0  0999 V2000
    3.2843    0.6274    0.7537 O   0  0  0  0  0  0  0  0  0  0  0  0
    3.0995   -0.3725   -0.2280 C   0  0  0  0  0  0  0  0  0  0  0  0
    1.7834   -0.1202   -0.9384 C   0  0  0  0  0  0  0  0  0  0  0  0
    0.6881   -0.1760    0.0804 C   0  0  0  0  0  0  0  0  0  0  0  0
    0.8130   -0.4133    1.4360 C   0  0  0  0  0  0  0  0  0  0  0  0
   -0.4318   -0.3709    1.9545 N   0  0  0  0  0  0  0  0  0  0  0  0
   -1.3137   -0.1172    0.9711 C   0  0  0  0  0  0  0  0  0  0  0  0
   -2.6898    0.0317    0.9278 C   0  0  0  0  0  0  0  0  0  0  0  0
   -3.3721    0.2965   -0.2462 C   0  0  0  0  0  0  0  0  0  0  0  0
   -2.6959    0.4232   -1.4320 C   0  0  0  0  0  0  0  0  0  0  0  0
   -1.3148    0.2768   -1.4074 C   0  0  0  0  0  0  0  0  0  0  0  0
   -0.6497    0.0144   -0.2367 C   0  0  0  0  0  0  0  0  0  0  0  0
    2.8435    1.4245    0.3781 H   0  0  0  0  0  0  0  0  0  0  0  0
    3.1338   -1.3840    0.1782 H   0  0  0  0  0  0  0  0  0  0  0  0
    3.8929   -0.2578   -0.9993 H   0  0  0  0  0  0  0  0  0  0  0  0
    1.8621    0.8437   -1.4443 H   0  0  0  0  0  0  0  0  0  0  0  0
    1.6883   -0.9494   -1.6840 H   0  0  0  0  0  0  0  0  0  0  0  0
    1.7240   -0.5988    1.9891 H   0  0  0  0  0  0  0  0  0  0  0  0
   -0.7104   -0.5072    2.9505 H   0  0  0  0  0  0  0  0  0  0  0  0
   -3.2241   -0.0706    1.8782 H   0  0  0  0  0  0  0  0  0  0  0  0
   -4.4457    0.4003   -0.2051 H   0  0  0  0  0  0  0  0  0  0  0  0
   -3.2133    0.6306   -2.3627 H   0  0  0  0  0  0  0  0  0  0  0  0
   -0.7514    0.3687   -2.3133 H   0  0  0  0  0  0  0  0  0  0  0  0
  1  2  1  0
  2  3  1  0
  3  4  1  0
  4  5  2  0
  5  6  1  0
  6  7  1  0
  7  8  2  0
  8  9  1  0
  9 10  2  0
 10 11  1  0
 11 12  2  0
 12  4  1  0
 12  7  1  0
  1 13  1  0
  2 14  1  0
  2 15  1  0
  3 16  1  0
  3 17  1  0
  5 18  1  0
  6 19  1  0
  8 20  1  0
  9 21  1  0
 10 22  1  0
 11 23  1  0
M  END
>  <coordinate_phase>  (16) 
ETKDG_before_MMFF

>  <molecule_id>  (16) 
tryptophol

>  <seed>  (16) 
20260929

>  <conformer_id>  (16) 
15

$$$$
tryptophol_20260929_16
     RDKit          3D

 23 24  0  0  0  0  0  0  0  0999 V2000
   -3.2155    0.1205   -1.1421 O   0  0  0  0  0  0  0  0  0  0  0  0
   -3.1277   -0.3809    0.1522 C   0  0  0  0  0  0  0  0  0  0  0  0
   -1.7465   -0.9403    0.4197 C   0  0  0  0  0  0  0  0  0  0  0  0
   -0.7004    0.0819    0.3112 C   0  0  0  0  0  0  0  0  0  0  0  0
   -0.7491    1.4569    0.4187 C   0  0  0  0  0  0  0  0  0  0  0  0
    0.4947    1.9589    0.2522 N   0  0  0  0  0  0  0  0  0  0  0  0
    1.3557    0.9476    0.0364 C   0  0  0  0  0  0  0  0  0  0  0  0
    2.7390    0.9654   -0.1936 C   0  0  0  0  0  0  0  0  0  0  0  0
    3.3547   -0.2554   -0.3886 C   0  0  0  0  0  0  0  0  0  0  0  0
    2.6389   -1.4348   -0.3582 C   0  0  0  0  0  0  0  0  0  0  0  0
    1.2804   -1.4386   -0.1311 C   0  0  0  0  0  0  0  0  0  0  0  0
    0.6435   -0.2342    0.0663 C   0  0  0  0  0  0  0  0  0  0  0  0
   -3.0826    1.1100   -1.2059 H   0  0  0  0  0  0  0  0  0  0  0  0
   -3.9154   -1.1448    0.3332 H   0  0  0  0  0  0  0  0  0  0  0  0
   -3.3420    0.4742    0.8366 H   0  0  0  0  0  0  0  0  0  0  0  0
   -1.7525   -1.3858    1.4117 H   0  0  0  0  0  0  0  0  0  0  0  0
   -1.6071   -1.7753   -0.2931 H   0  0  0  0  0  0  0  0  0  0  0  0
   -1.6792    2.0150    0.6048 H   0  0  0  0  0  0  0  0  0  0  0  0
    0.7587    2.9706    0.2816 H   0  0  0  0  0  0  0  0  0  0  0  0
    3.2658    1.8902   -0.2063 H   0  0  0  0  0  0  0  0  0  0  0  0
    4.4338   -0.2637   -0.5691 H   0  0  0  0  0  0  0  0  0  0  0  0
    3.1920   -2.3566   -0.5194 H   0  0  0  0  0  0  0  0  0  0  0  0
    0.7607   -2.3807   -0.1171 H   0  0  0  0  0  0  0  0  0  0  0  0
  1  2  1  0
  2  3  1  0
  3  4  1  0
  4  5  2  0
  5  6  1  0
  6  7  1  0
  7  8  2  0
  8  9  1  0
  9 10  2  0
 10 11  1  0
 11 12  2  0
 12  4  1  0
 12  7  1  0
  1 13  1  0
  2 14  1  0
  2 15  1  0
  3 16  1  0
  3 17  1  0
  5 18  1  0
  6 19  1  0
  8 20  1  0
  9 21  1  0
 10 22  1  0
 11 23  1  0
M  END
>  <coordinate_phase>  (17) 
ETKDG_before_MMFF

>  <molecule_id>  (17) 
tryptophol

>  <seed>  (17) 
20260929

>  <conformer_id>  (17) 
16

$$$$
tryptophol_20260929_17
     RDKit          3D

 23 24  0  0  0  0  0  0  0  0999 V2000
   -3.1390   -0.4244    1.1180 O   0  0  0  0  0  0  0  0  0  0  0  0
   -3.1086   -0.2614   -0.2856 C   0  0  0  0  0  0  0  0  0  0  0  0
   -1.8416    0.5272   -0.5508 C   0  0  0  0  0  0  0  0  0  0  0  0
   -0.6735   -0.2224   -0.0665 C   0  0  0  0  0  0  0  0  0  0  0  0
   -0.6201   -1.4570    0.5480 C   0  0  0  0  0  0  0  0  0  0  0  0
    0.6752   -1.7551    0.8219 N   0  0  0  0  0  0  0  0  0  0  0  0
    1.4711   -0.7557    0.4066 C   0  0  0  0  0  0  0  0  0  0  0  0
    2.8275   -0.5671    0.4463 C   0  0  0  0  0  0  0  0  0  0  0  0
    3.3510    0.6065   -0.0816 C   0  0  0  0  0  0  0  0  0  0  0  0
    2.5405    1.5797   -0.6412 C   0  0  0  0  0  0  0  0  0  0  0  0
    1.1691    1.3763   -0.6751 C   0  0  0  0  0  0  0  0  0  0  0  0
    0.6388    0.2081   -0.1505 C   0  0  0  0  0  0  0  0  0  0  0  0
   -3.4404    0.4734    1.4678 H   0  0  0  0  0  0  0  0  0  0  0  0
   -3.0723   -1.2443   -0.7627 H   0  0  0  0  0  0  0  0  0  0  0  0
   -3.9954    0.3491   -0.5682 H   0  0  0  0  0  0  0  0  0  0  0  0
   -1.7849    0.6962   -1.6636 H   0  0  0  0  0  0  0  0  0  0  0  0
   -1.9386    1.5365   -0.1002 H   0  0  0  0  0  0  0  0  0  0  0  0
   -1.4957   -2.0722    0.7659 H   0  0  0  0  0  0  0  0  0  0  0  0
    1.0345   -2.6256    1.2867 H   0  0  0  0  0  0  0  0  0  0  0  0
    3.4818   -1.3031    0.8736 H   0  0  0  0  0  0  0  0  0  0  0  0
    4.4378    0.7176   -0.0301 H   0  0  0  0  0  0  0  0  0  0  0  0
    2.9804    2.4953   -1.0500 H   0  0  0  0  0  0  0  0  0  0  0  0
    0.5025    2.1224   -1.1085 H   0  0  0  0  0  0  0  0  0  0  0  0
  1  2  1  0
  2  3  1  0
  3  4  1  0
  4  5  2  0
  5  6  1  0
  6  7  1  0
  7  8  2  0
  8  9  1  0
  9 10  2  0
 10 11  1  0
 11 12  2  0
 12  4  1  0
 12  7  1  0
  1 13  1  0
  2 14  1  0
  2 15  1  0
  3 16  1  0
  3 17  1  0
  5 18  1  0
  6 19  1  0
  8 20  1  0
  9 21  1  0
 10 22  1  0
 11 23  1  0
M  END
>  <coordinate_phase>  (18) 
ETKDG_before_MMFF

>  <molecule_id>  (18) 
tryptophol

>  <seed>  (18) 
20260929

>  <conformer_id>  (18) 
17

$$$$
tryptophol_20260929_18
     RDKit          3D

 23 24  0  0  0  0  0  0  0  0999 V2000
    3.0578    0.2902    0.9244 O   0  0  0  0  0  0  0  0  0  0  0  0
    2.6960   -0.6378   -0.0519 C   0  0  0  0  0  0  0  0  0  0  0  0
    1.8298   -0.0103   -1.1277 C   0  0  0  0  0  0  0  0  0  0  0  0
    0.5839    0.5440   -0.5813 C   0  0  0  0  0  0  0  0  0  0  0  0
    0.3842    1.8869   -0.3324 C   0  0  0  0  0  0  0  0  0  0  0  0
   -0.8479    2.0820    0.1815 N   0  0  0  0  0  0  0  0  0  0  0  0
   -1.4673    0.8937    0.2768 C   0  0  0  0  0  0  0  0  0  0  0  0
   -2.7281    0.5374    0.7301 C   0  0  0  0  0  0  0  0  0  0  0  0
   -3.1045   -0.7847    0.7100 C   0  0  0  0  0  0  0  0  0  0  0  0
   -2.2244   -1.7318    0.2404 C   0  0  0  0  0  0  0  0  0  0  0  0
   -0.9523   -1.4267   -0.2242 C   0  0  0  0  0  0  0  0  0  0  0  0
   -0.5818   -0.0753   -0.1974 C   0  0  0  0  0  0  0  0  0  0  0  0
    3.9155   -0.0200    1.3134 H   0  0  0  0  0  0  0  0  0  0  0  0
    3.6358   -1.0227   -0.4934 H   0  0  0  0  0  0  0  0  0  0  0  0
    2.1794   -1.4851    0.4295 H   0  0  0  0  0  0  0  0  0  0  0  0
    1.6235   -0.8444   -1.8703 H   0  0  0  0  0  0  0  0  0  0  0  0
    2.4569    0.7184   -1.6785 H   0  0  0  0  0  0  0  0  0  0  0  0
    1.1113    2.6794   -0.5236 H   0  0  0  0  0  0  0  0  0  0  0  0
   -1.2671    2.9879    0.4622 H   0  0  0  0  0  0  0  0  0  0  0  0
   -3.3717    1.3411    1.0870 H   0  0  0  0  0  0  0  0  0  0  0  0
   -4.1029   -1.0141    1.0709 H   0  0  0  0  0  0  0  0  0  0  0  0
   -2.5625   -2.7582    0.2414 H   0  0  0  0  0  0  0  0  0  0  0  0
   -0.2638   -2.1500   -0.5869 H   0  0  0  0  0  0  0  0  0  0  0  0
  1  2  1  0
  2  3  1  0
  3  4  1  0
  4  5  2  0
  5  6  1  0
  6  7  1  0
  7  8  2  0
  8  9  1  0
  9 10  2  0
 10 11  1  0
 11 12  2  0
 12  4  1  0
 12  7  1  0
  1 13  1  0
  2 14  1  0
  2 15  1  0
  3 16  1  0
  3 17  1  0
  5 18  1  0
  6 19  1  0
  8 20  1  0
  9 21  1  0
 10 22  1  0
 11 23  1  0
M  END
>  <coordinate_phase>  (19) 
ETKDG_before_MMFF

>  <molecule_id>  (19) 
tryptophol

>  <seed>  (19) 
20260929

>  <conformer_id>  (19) 
18

$$$$
tryptophol_20260929_19
     RDKit          3D

 23 24  0  0  0  0  0  0  0  0999 V2000
    2.4858    0.5484   -1.5033 O   0  0  0  0  0  0  0  0  0  0  0  0
    2.7247    0.2271   -0.1472 C   0  0  0  0  0  0  0  0  0  0  0  0
    1.9785   -0.9281    0.3042 C   0  0  0  0  0  0  0  0  0  0  0  0
    0.5327   -0.9704    0.2742 C   0  0  0  0  0  0  0  0  0  0  0  0
   -0.1951   -2.1724    0.3778 C   0  0  0  0  0  0  0  0  0  0  0  0
   -1.4799   -1.8883    0.3129 N   0  0  0  0  0  0  0  0  0  0  0  0
   -1.7010   -0.5721    0.1710 C   0  0  0  0  0  0  0  0  0  0  0  0
   -2.8600    0.1651    0.0632 C   0  0  0  0  0  0  0  0  0  0  0  0
   -2.7628    1.5413   -0.0743 C   0  0  0  0  0  0  0  0  0  0  0  0
   -1.5087    2.1006   -0.0966 C   0  0  0  0  0  0  0  0  0  0  0  0
   -0.3552    1.3469    0.0115 C   0  0  0  0  0  0  0  0  0  0  0  0
   -0.4377   -0.0012    0.1471 C   0  0  0  0  0  0  0  0  0  0  0  0
    2.6563    1.5342   -1.6213 H   0  0  0  0  0  0  0  0  0  0  0  0
    3.8205   -0.0905   -0.2137 H   0  0  0  0  0  0  0  0  0  0  0  0
    2.8011    1.1149    0.5085 H   0  0  0  0  0  0  0  0  0  0  0  0
    2.2631   -1.1130    1.3877 H   0  0  0  0  0  0  0  0  0  0  0  0
    2.4198   -1.8428   -0.2077 H   0  0  0  0  0  0  0  0  0  0  0  0
    0.2294   -3.1742    0.4917 H   0  0  0  0  0  0  0  0  0  0  0  0
   -2.2534   -2.5975    0.3629 H   0  0  0  0  0  0  0  0  0  0  0  0
   -3.8251   -0.3419    0.0882 H   0  0  0  0  0  0  0  0  0  0  0  0
   -3.6714    2.1180   -0.1610 H   0  0  0  0  0  0  0  0  0  0  0  0
   -1.4635    3.1817   -0.2069 H   0  0  0  0  0  0  0  0  0  0  0  0
    0.6018    1.8143   -0.0073 H   0  0  0  0  0  0  0  0  0  0  0  0
  1  2  1  0
  2  3  1  0
  3  4  1  0
  4  5  2  0
  5  6  1  0
  6  7  1  0
  7  8  2  0
  8  9  1  0
  9 10  2  0
 10 11  1  0
 11 12  2  0
 12  4  1  0
 12  7  1  0
  1 13  1  0
  2 14  1  0
  2 15  1  0
  3 16  1  0
  3 17  1  0
  5 18  1  0
  6 19  1  0
  8 20  1  0
  9 21  1  0
 10 22  1  0
 11 23  1  0
M  END
>  <coordinate_phase>  (20) 
ETKDG_before_MMFF

>  <molecule_id>  (20) 
tryptophol

>  <seed>  (20) 
20260929

>  <conformer_id>  (20) 
19

$$$$
tryptophol_20260930_20
     RDKit          3D

 23 24  0  0  0  0  0  0  0  0999 V2000
    3.7238   -1.0643    1.0542 O   0  0  0  0  0  0  0  0  0  0  0  0
    2.4966   -0.4188    0.9546 C   0  0  0  0  0  0  0  0  0  0  0  0
    1.9925   -0.3594   -0.4991 C   0  0  0  0  0  0  0  0  0  0  0  0
    0.6773    0.3385   -0.5350 C   0  0  0  0  0  0  0  0  0  0  0  0
    0.5620    1.6754   -0.9045 C   0  0  0  0  0  0  0  0  0  0  0  0
   -0.7563    2.0035   -0.8211 N   0  0  0  0  0  0  0  0  0  0  0  0
   -1.4601    0.9108   -0.4124 C   0  0  0  0  0  0  0  0  0  0  0  0
   -2.8177    0.7499   -0.1898 C   0  0  0  0  0  0  0  0  0  0  0  0
   -3.2262   -0.5010    0.2204 C   0  0  0  0  0  0  0  0  0  0  0  0
   -2.3720   -1.5578    0.4097 C   0  0  0  0  0  0  0  0  0  0  0  0
   -1.0017   -1.3964    0.1851 C   0  0  0  0  0  0  0  0  0  0  0  0
   -0.5773   -0.1286   -0.2321 C   0  0  0  0  0  0  0  0  0  0  0  0
    4.4218   -0.3489    1.1029 H   0  0  0  0  0  0  0  0  0  0  0  0
    2.5782    0.6800    1.2311 H   0  0  0  0  0  0  0  0  0  0  0  0
    1.7054   -0.8727    1.5773 H   0  0  0  0  0  0  0  0  0  0  0  0
    2.7468    0.1701   -1.1002 H   0  0  0  0  0  0  0  0  0  0  0  0
    1.9073   -1.3885   -0.9087 H   0  0  0  0  0  0  0  0  0  0  0  0
    1.3763    2.3548   -1.2092 H   0  0  0  0  0  0  0  0  0  0  0  0
   -1.1638    2.9625   -1.0413 H   0  0  0  0  0  0  0  0  0  0  0  0
   -3.4637    1.5845   -0.3443 H   0  0  0  0  0  0  0  0  0  0  0  0
   -4.2909   -0.6891    0.4083 H   0  0  0  0  0  0  0  0  0  0  0  0
   -2.7648   -2.5118    0.7332 H   0  0  0  0  0  0  0  0  0  0  0  0
   -0.2934   -2.1924    0.3208 H   0  0  0  0  0  0  0  0  0  0  0  0
  1  2  1  0
  2  3  1  0
  3  4  1  0
  4  5  2  0
  5  6  1  0
  6  7  1  0
  7  8  2  0
  8  9  1  0
  9 10  2  0
 10 11  1  0
 11 12  2  0
 12  4  1  0
 12  7  1  0
  1 13  1  0
  2 14  1  0
  2 15  1  0
  3 16  1  0
  3 17  1  0
  5 18  1  0
  6 19  1  0
  8 20  1  0
  9 21  1  0
 10 22  1  0
 11 23  1  0
M  END
>  <coordinate_phase>  (21) 
ETKDG_before_MMFF

>  <molecule_id>  (21) 
tryptophol

>  <seed>  (21) 
20260930

>  <conformer_id>  (21) 
20

$$$$
tryptophol_20260930_21
     RDKit          3D

 23 24  0  0  0  0  0  0  0  0999 V2000
    3.2860   -0.6013    0.8174 O   0  0  0  0  0  0  0  0  0  0  0  0
    3.0388   -0.3331   -0.5267 C   0  0  0  0  0  0  0  0  0  0  0  0
    1.7725    0.4858   -0.6566 C   0  0  0  0  0  0  0  0  0  0  0  0
    0.6005   -0.2069   -0.1119 C   0  0  0  0  0  0  0  0  0  0  0  0
    0.5769   -1.4724    0.4726 C   0  0  0  0  0  0  0  0  0  0  0  0
   -0.7009   -1.7336    0.8401 N   0  0  0  0  0  0  0  0  0  0  0  0
   -1.4687   -0.6823    0.5070 C   0  0  0  0  0  0  0  0  0  0  0  0
   -2.8192   -0.4214    0.6493 C   0  0  0  0  0  0  0  0  0  0  0  0
   -3.3696    0.7815    0.2047 C   0  0  0  0  0  0  0  0  0  0  0  0
   -2.5715    1.7548   -0.3961 C   0  0  0  0  0  0  0  0  0  0  0  0
   -1.2246    1.4951   -0.5381 C   0  0  0  0  0  0  0  0  0  0  0  0
   -0.6824    0.3009   -0.0959 C   0  0  0  0  0  0  0  0  0  0  0  0
    4.2240   -0.4579    1.0431 H   0  0  0  0  0  0  0  0  0  0  0  0
    2.9864   -1.2559   -1.1291 H   0  0  0  0  0  0  0  0  0  0  0  0
    3.8953    0.2657   -0.8984 H   0  0  0  0  0  0  0  0  0  0  0  0
    1.9380    1.4112   -0.0642 H   0  0  0  0  0  0  0  0  0  0  0  0
    1.6575    0.7043   -1.7501 H   0  0  0  0  0  0  0  0  0  0  0  0
    1.4093   -2.1368    0.6158 H   0  0  0  0  0  0  0  0  0  0  0  0
   -1.0640   -2.6063    1.3104 H   0  0  0  0  0  0  0  0  0  0  0  0
   -3.4317   -1.1830    1.1171 H   0  0  0  0  0  0  0  0  0  0  0  0
   -4.4193    0.9622    0.3253 H   0  0  0  0  0  0  0  0  0  0  0  0
   -3.0442    2.6734   -0.7255 H   0  0  0  0  0  0  0  0  0  0  0  0
   -0.5889    2.2557   -1.0100 H   0  0  0  0  0  0  0  0  0  0  0  0
  1  2  1  0
  2  3  1  0
  3  4  1  0
  4  5  2  0
  5  6  1  0
  6  7  1  0
  7  8  2  0
  8  9  1  0
  9 10  2  0
 10 11  1  0
 11 12  2  0
 12  4  1  0
 12  7  1  0
  1 13  1  0
  2 14  1  0
  2 15  1  0
  3 16  1  0
  3 17  1  0
  5 18  1  0
  6 19  1  0
  8 20  1  0
  9 21  1  0
 10 22  1  0
 11 23  1  0
M  END
>  <coordinate_phase>  (22) 
ETKDG_before_MMFF

>  <molecule_id>  (22) 
tryptophol

>  <seed>  (22) 
20260930

>  <conformer_id>  (22) 
21

$$$$
tryptophol_20260930_22
     RDKit          3D

 23 24  0  0  0  0  0  0  0  0999 V2000
    2.4061    0.2328   -1.7691 O   0  0  0  0  0  0  0  0  0  0  0  0
    2.5367    0.7704   -0.4902 C   0  0  0  0  0  0  0  0  0  0  0  0
    2.0721   -0.0351    0.6218 C   0  0  0  0  0  0  0  0  0  0  0  0
    0.7029   -0.4794    0.7605 C   0  0  0  0  0  0  0  0  0  0  0  0
    0.3227   -1.5190    1.6242 C   0  0  0  0  0  0  0  0  0  0  0  0
   -0.9888   -1.6698    1.5035 N   0  0  0  0  0  0  0  0  0  0  0  0
   -1.4848   -0.7918    0.6134 C   0  0  0  0  0  0  0  0  0  0  0  0
   -2.7779   -0.5896    0.1727 C   0  0  0  0  0  0  0  0  0  0  0  0
   -3.0050    0.3946   -0.7653 C   0  0  0  0  0  0  0  0  0  0  0  0
   -1.9851    1.1729   -1.2678 C   0  0  0  0  0  0  0  0  0  0  0  0
   -0.7075    0.9430   -0.8043 C   0  0  0  0  0  0  0  0  0  0  0  0
   -0.4454   -0.0304    0.1301 C   0  0  0  0  0  0  0  0  0  0  0  0
    2.4502    1.0299   -2.3823 H   0  0  0  0  0  0  0  0  0  0  0  0
    3.6751    0.7938   -0.3791 H   0  0  0  0  0  0  0  0  0  0  0  0
    2.3215    1.8599   -0.4354 H   0  0  0  0  0  0  0  0  0  0  0  0
    2.7670   -0.9351    0.6924 H   0  0  0  0  0  0  0  0  0  0  0  0
    2.3441    0.5167    1.5743 H   0  0  0  0  0  0  0  0  0  0  0  0
    0.9669   -2.0968    2.2709 H   0  0  0  0  0  0  0  0  0  0  0  0
   -1.5386   -2.3838    2.0423 H   0  0  0  0  0  0  0  0  0  0  0  0
   -3.5521   -1.2004    0.5748 H   0  0  0  0  0  0  0  0  0  0  0  0
   -4.0167    0.5304   -1.0928 H   0  0  0  0  0  0  0  0  0  0  0  0
   -2.1666    1.9463   -2.0090 H   0  0  0  0  0  0  0  0  0  0  0  0
    0.1031    1.5405   -1.1854 H   0  0  0  0  0  0  0  0  0  0  0  0
  1  2  1  0
  2  3  1  0
  3  4  1  0
  4  5  2  0
  5  6  1  0
  6  7  1  0
  7  8  2  0
  8  9  1  0
  9 10  2  0
 10 11  1  0
 11 12  2  0
 12  4  1  0
 12  7  1  0
  1 13  1  0
  2 14  1  0
  2 15  1  0
  3 16  1  0
  3 17  1  0
  5 18  1  0
  6 19  1  0
  8 20  1  0
  9 21  1  0
 10 22  1  0
 11 23  1  0
M  END
>  <coordinate_phase>  (23) 
ETKDG_before_MMFF

>  <molecule_id>  (23) 
tryptophol

>  <seed>  (23) 
20260930

>  <conformer_id>  (23) 
22

$$$$
tryptophol_20260930_23
     RDKit          3D

 23 24  0  0  0  0  0  0  0  0999 V2000
    3.6203    1.2232   -1.1211 O   0  0  0  0  0  0  0  0  0  0  0  0
    2.5133    0.9222   -0.3172 C   0  0  0  0  0  0  0  0  0  0  0  0
    1.8544   -0.3735   -0.7923 C   0  0  0  0  0  0  0  0  0  0  0  0
    0.6872   -0.7180    0.0269 C   0  0  0  0  0  0  0  0  0  0  0  0
    0.5997   -1.6707    1.0508 C   0  0  0  0  0  0  0  0  0  0  0  0
   -0.6548   -1.6672    1.5546 N   0  0  0  0  0  0  0  0  0  0  0  0
   -1.3732   -0.7365    0.8796 C   0  0  0  0  0  0  0  0  0  0  0  0
   -2.6940   -0.3372    0.9912 C   0  0  0  0  0  0  0  0  0  0  0  0
   -3.2151    0.6661    0.1554 C   0  0  0  0  0  0  0  0  0  0  0  0
   -2.4144    1.2647   -0.7881 C   0  0  0  0  0  0  0  0  0  0  0  0
   -1.0899    0.8739   -0.9109 C   0  0  0  0  0  0  0  0  0  0  0  0
   -0.5743   -0.1266   -0.0756 C   0  0  0  0  0  0  0  0  0  0  0  0
    4.3148    0.5142   -0.9388 H   0  0  0  0  0  0  0  0  0  0  0  0
    2.9180    0.7244    0.6819 H   0  0  0  0  0  0  0  0  0  0  0  0
    1.8362    1.7748   -0.3063 H   0  0  0  0  0  0  0  0  0  0  0  0
    2.6181   -1.1625   -0.8642 H   0  0  0  0  0  0  0  0  0  0  0  0
    1.5395   -0.1209   -1.8566 H   0  0  0  0  0  0  0  0  0  0  0  0
    1.4074   -2.3286    1.4040 H   0  0  0  0  0  0  0  0  0  0  0  0
   -1.0601   -2.2568    2.3264 H   0  0  0  0  0  0  0  0  0  0  0  0
   -3.3499   -0.7930    1.7283 H   0  0  0  0  0  0  0  0  0  0  0  0
   -4.2410    0.9895    0.2257 H   0  0  0  0  0  0  0  0  0  0  0  0
   -2.8156    2.0341   -1.4285 H   0  0  0  0  0  0  0  0  0  0  0  0
   -0.4267    1.3042   -1.6253 H   0  0  0  0  0  0  0  0  0  0  0  0
  1  2  1  0
  2  3  1  0
  3  4  1  0
  4  5  2  0
  5  6  1  0
  6  7  1  0
  7  8  2  0
  8  9  1  0
  9 10  2  0
 10 11  1  0
 11 12  2  0
 12  4  1  0
 12  7  1  0
  1 13  1  0
  2 14  1  0
  2 15  1  0
  3 16  1  0
  3 17  1  0
  5 18  1  0
  6 19  1  0
  8 20  1  0
  9 21  1  0
 10 22  1  0
 11 23  1  0
M  END
>  <coordinate_phase>  (24) 
ETKDG_before_MMFF

>  <molecule_id>  (24) 
tryptophol

>  <seed>  (24) 
20260930

>  <conformer_id>  (24) 
23

$$$$
tryptophol_20260930_24
     RDKit          3D

 23 24  0  0  0  0  0  0  0  0999 V2000
   -3.0059   -0.5575   -1.0315 O   0  0  0  0  0  0  0  0  0  0  0  0
   -2.6008    0.7141   -0.5752 C   0  0  0  0  0  0  0  0  0  0  0  0
   -1.8939    0.5902    0.7556 C   0  0  0  0  0  0  0  0  0  0  0  0
   -0.6931   -0.2588    0.6771 C   0  0  0  0  0  0  0  0  0  0  0  0
   -0.5587   -1.5718    1.0891 C   0  0  0  0  0  0  0  0  0  0  0  0
    0.6920   -1.9924    0.8329 N   0  0  0  0  0  0  0  0  0  0  0  0
    1.3672   -0.9559    0.2559 C   0  0  0  0  0  0  0  0  0  0  0  0
    2.6745   -0.8329   -0.2062 C   0  0  0  0  0  0  0  0  0  0  0  0
    3.1432    0.3491   -0.7660 C   0  0  0  0  0  0  0  0  0  0  0  0
    2.2945    1.4578   -0.8771 C   0  0  0  0  0  0  0  0  0  0  0  0
    0.9784    1.3411   -0.4146 C   0  0  0  0  0  0  0  0  0  0  0  0
    0.5399    0.1391    0.1426 C   0  0  0  0  0  0  0  0  0  0  0  0
   -3.3932   -1.0556   -0.2508 H   0  0  0  0  0  0  0  0  0  0  0  0
   -3.5328    1.2876   -0.4165 H   0  0  0  0  0  0  0  0  0  0  0  0
   -2.0043    1.2624   -1.3294 H   0  0  0  0  0  0  0  0  0  0  0  0
   -1.5875    1.6437    1.0279 H   0  0  0  0  0  0  0  0  0  0  0  0
   -2.5936    0.2510    1.5378 H   0  0  0  0  0  0  0  0  0  0  0  0
   -1.3241   -2.2107    1.5564 H   0  0  0  0  0  0  0  0  0  0  0  0
    1.0710   -2.9421    1.0400 H   0  0  0  0  0  0  0  0  0  0  0  0
    3.3561   -1.6813   -0.1328 H   0  0  0  0  0  0  0  0  0  0  0  0
    4.1446    0.4810   -1.1321 H   0  0  0  0  0  0  0  0  0  0  0  0
    2.6479    2.3955   -1.3142 H   0  0  0  0  0  0  0  0  0  0  0  0
    0.2788    2.1462   -0.4688 H   0  0  0  0  0  0  0  0  0  0  0  0
  1  2  1  0
  2  3  1  0
  3  4  1  0
  4  5  2  0
  5  6  1  0
  6  7  1  0
  7  8  2  0
  8  9  1  0
  9 10  2  0
 10 11  1  0
 11 12  2  0
 12  4  1  0
 12  7  1  0
  1 13  1  0
  2 14  1  0
  2 15  1  0
  3 16  1  0
  3 17  1  0
  5 18  1  0
  6 19  1  0
  8 20  1  0
  9 21  1  0
 10 22  1  0
 11 23  1  0
M  END
>  <coordinate_phase>  (25) 
ETKDG_before_MMFF

>  <molecule_id>  (25) 
tryptophol

>  <seed>  (25) 
20260930

>  <conformer_id>  (25) 
24

$$$$
tryptophol_20260930_25
     RDKit          3D

 23 24  0  0  0  0  0  0  0  0999 V2000
    2.1112   -1.6561   -0.0857 O   0  0  0  0  0  0  0  0  0  0  0  0
    2.7753   -0.4587    0.1106 C   0  0  0  0  0  0  0  0  0  0  0  0
    1.9657    0.5289    0.9498 C   0  0  0  0  0  0  0  0  0  0  0  0
    0.6661    0.8158    0.2604 C   0  0  0  0  0  0  0  0  0  0  0  0
    0.4945    1.9561   -0.5073 C   0  0  0  0  0  0  0  0  0  0  0  0
   -0.7619    1.8828   -0.9875 N   0  0  0  0  0  0  0  0  0  0  0  0
   -1.3672    0.7502   -0.5478 C   0  0  0  0  0  0  0  0  0  0  0  0
   -2.6542    0.2572   -0.7738 C   0  0  0  0  0  0  0  0  0  0  0  0
   -3.0182   -0.9388   -0.1846 C   0  0  0  0  0  0  0  0  0  0  0  0
   -2.1124   -1.6315    0.6161 C   0  0  0  0  0  0  0  0  0  0  0  0
   -0.8250   -1.1338    0.8389 C   0  0  0  0  0  0  0  0  0  0  0  0
   -0.4838    0.0528    0.2466 C   0  0  0  0  0  0  0  0  0  0  0  0
    2.1691   -1.9230   -1.0429 H   0  0  0  0  0  0  0  0  0  0  0  0
    2.8569    0.0376   -0.9005 H   0  0  0  0  0  0  0  0  0  0  0  0
    3.8125   -0.5616    0.4609 H   0  0  0  0  0  0  0  0  0  0  0  0
    1.7590   -0.0196    1.9065 H   0  0  0  0  0  0  0  0  0  0  0  0
    2.5008    1.4514    1.1679 H   0  0  0  0  0  0  0  0  0  0  0  0
    1.2255    2.7382   -0.6800 H   0  0  0  0  0  0  0  0  0  0  0  0
   -1.2268    2.5977   -1.6194 H   0  0  0  0  0  0  0  0  0  0  0  0
   -3.3388    0.8286   -1.4110 H   0  0  0  0  0  0  0  0  0  0  0  0
   -4.0001   -1.3568   -0.3333 H   0  0  0  0  0  0  0  0  0  0  0  0
   -2.4334   -2.5627    1.0567 H   0  0  0  0  0  0  0  0  0  0  0  0
   -0.1146   -1.6548    1.4594 H   0  0  0  0  0  0  0  0  0  0  0  0
  1  2  1  0
  2  3  1  0
  3  4  1  0
  4  5  2  0
  5  6  1  0
  6  7  1  0
  7  8  2  0
  8  9  1  0
  9 10  2  0
 10 11  1  0
 11 12  2  0
 12  4  1  0
 12  7  1  0
  1 13  1  0
  2 14  1  0
  2 15  1  0
  3 16  1  0
  3 17  1  0
  5 18  1  0
  6 19  1  0
  8 20  1  0
  9 21  1  0
 10 22  1  0
 11 23  1  0
M  END
>  <coordinate_phase>  (26) 
ETKDG_before_MMFF

>  <molecule_id>  (26) 
tryptophol

>  <seed>  (26) 
20260930

>  <conformer_id>  (26) 
25

$$$$
tryptophol_20260930_26
     RDKit          3D

 23 24  0  0  0  0  0  0  0  0999 V2000
    3.0266   -0.5803    1.2338 O   0  0  0  0  0  0  0  0  0  0  0  0
    3.1196   -0.1728   -0.0724 C   0  0  0  0  0  0  0  0  0  0  0  0
    1.8736    0.5884   -0.4352 C   0  0  0  0  0  0  0  0  0  0  0  0
    0.6375   -0.2459   -0.3081 C   0  0  0  0  0  0  0  0  0  0  0  0
    0.5325   -1.6002   -0.3715 C   0  0  0  0  0  0  0  0  0  0  0  0
   -0.7642   -1.9635   -0.2218 N   0  0  0  0  0  0  0  0  0  0  0  0
   -1.4741   -0.8334   -0.0628 C   0  0  0  0  0  0  0  0  0  0  0  0
   -2.8265   -0.6204    0.1171 C   0  0  0  0  0  0  0  0  0  0  0  0
   -3.3346    0.6764    0.2502 C   0  0  0  0  0  0  0  0  0  0  0  0
   -2.4445    1.7541    0.1978 C   0  0  0  0  0  0  0  0  0  0  0  0
   -1.0857    1.5548    0.0170 C   0  0  0  0  0  0  0  0  0  0  0  0
   -0.6386    0.2644   -0.1094 C   0  0  0  0  0  0  0  0  0  0  0  0
    3.4927    0.0839    1.8149 H   0  0  0  0  0  0  0  0  0  0  0  0
    3.1542   -1.0563   -0.7382 H   0  0  0  0  0  0  0  0  0  0  0  0
    4.0386    0.4042   -0.2900 H   0  0  0  0  0  0  0  0  0  0  0  0
    1.7332    1.4069    0.3282 H   0  0  0  0  0  0  0  0  0  0  0  0
    1.9466    1.0488   -1.4574 H   0  0  0  0  0  0  0  0  0  0  0  0
    1.3337   -2.3189   -0.5125 H   0  0  0  0  0  0  0  0  0  0  0  0
   -1.1588   -2.9081   -0.2210 H   0  0  0  0  0  0  0  0  0  0  0  0
   -3.5126   -1.4615    0.1573 H   0  0  0  0  0  0  0  0  0  0  0  0
   -4.3845    0.7969    0.3959 H   0  0  0  0  0  0  0  0  0  0  0  0
   -2.8231    2.7623    0.3119 H   0  0  0  0  0  0  0  0  0  0  0  0
   -0.4417    2.4202   -0.0238 H   0  0  0  0  0  0  0  0  0  0  0  0
  1  2  1  0
  2  3  1  0
  3  4  1  0
  4  5  2  0
  5  6  1  0
  6  7  1  0
  7  8  2  0
  8  9  1  0
  9 10  2  0
 10 11  1  0
 11 12  2  0
 12  4  1  0
 12  7  1  0
  1 13  1  0
  2 14  1  0
  2 15  1  0
  3 16  1  0
  3 17  1  0
  5 18  1  0
  6 19  1  0
  8 20  1  0
  9 21  1  0
 10 22  1  0
 11 23  1  0
M  END
>  <coordinate_phase>  (27) 
ETKDG_before_MMFF

>  <molecule_id>  (27) 
tryptophol

>  <seed>  (27) 
20260930

>  <conformer_id>  (27) 
26

$$$$
tryptophol_20260930_27
     RDKit          3D

 23 24  0  0  0  0  0  0  0  0999 V2000
   -3.2696   -1.0746    0.2325 O   0  0  0  0  0  0  0  0  0  0  0  0
   -3.1353    0.2529   -0.1616 C   0  0  0  0  0  0  0  0  0  0  0  0
   -1.8433    0.8178    0.3777 C   0  0  0  0  0  0  0  0  0  0  0  0
   -0.7085    0.0167   -0.1620 C   0  0  0  0  0  0  0  0  0  0  0  0
   -0.7497   -1.0726   -1.0159 C   0  0  0  0  0  0  0  0  0  0  0  0
    0.5171   -1.5021   -1.2553 N   0  0  0  0  0  0  0  0  0  0  0  0
    1.3901   -0.7260   -0.5830 C   0  0  0  0  0  0  0  0  0  0  0  0
    2.7842   -0.7473   -0.4940 C   0  0  0  0  0  0  0  0  0  0  0  0
    3.4337    0.1962    0.2920 C   0  0  0  0  0  0  0  0  0  0  0  0
    2.6912    1.1452    0.9770 C   0  0  0  0  0  0  0  0  0  0  0  0
    1.3096    1.1419    0.8697 C   0  0  0  0  0  0  0  0  0  0  0  0
    0.6376    0.2124    0.0929 C   0  0  0  0  0  0  0  0  0  0  0  0
   -3.1935   -1.1622    1.2164 H   0  0  0  0  0  0  0  0  0  0  0  0
   -3.1638    0.2932   -1.2675 H   0  0  0  0  0  0  0  0  0  0  0  0
   -3.9840    0.8770    0.2178 H   0  0  0  0  0  0  0  0  0  0  0  0
   -1.8009    1.8802    0.1116 H   0  0  0  0  0  0  0  0  0  0  0  0
   -1.8851    0.7798    1.4858 H   0  0  0  0  0  0  0  0  0  0  0  0
   -1.6408   -1.5103   -1.4252 H   0  0  0  0  0  0  0  0  0  0  0  0
    0.8315   -2.3016   -1.8558 H   0  0  0  0  0  0  0  0  0  0  0  0
    3.3559   -1.4884   -1.0295 H   0  0  0  0  0  0  0  0  0  0  0  0
    4.5198    0.1955    0.3738 H   0  0  0  0  0  0  0  0  0  0  0  0
    3.1581    1.8773    1.5841 H   0  0  0  0  0  0  0  0  0  0  0  0
    0.7457    1.8990    1.4183 H   0  0  0  0  0  0  0  0  0  0  0  0
  1  2  1  0
  2  3  1  0
  3  4  1  0
  4  5  2  0
  5  6  1  0
  6  7  1  0
  7  8  2  0
  8  9  1  0
  9 10  2  0
 10 11  1  0
 11 12  2  0
 12  4  1  0
 12  7  1  0
  1 13  1  0
  2 14  1  0
  2 15  1  0
  3 16  1  0
  3 17  1  0
  5 18  1  0
  6 19  1  0
  8 20  1  0
  9 21  1  0
 10 22  1  0
 11 23  1  0
M  END
>  <coordinate_phase>  (28) 
ETKDG_before_MMFF

>  <molecule_id>  (28) 
tryptophol

>  <seed>  (28) 
20260930

>  <conformer_id>  (28) 
27

$$$$
tryptophol_20260930_28
     RDKit          3D

 23 24  0  0  0  0  0  0  0  0999 V2000
   -1.9939   -1.1706   -1.3227 O   0  0  0  0  0  0  0  0  0  0  0  0
   -2.6802   -0.3252   -0.4908 C   0  0  0  0  0  0  0  0  0  0  0  0
   -2.0497   -0.0602    0.8363 C   0  0  0  0  0  0  0  0  0  0  0  0
   -0.7026    0.5489    0.6179 C   0  0  0  0  0  0  0  0  0  0  0  0
   -0.4480    1.8986    0.7120 C   0  0  0  0  0  0  0  0  0  0  0  0
    0.8612    2.1469    0.4363 N   0  0  0  0  0  0  0  0  0  0  0  0
    1.4143    0.9496    0.1724 C   0  0  0  0  0  0  0  0  0  0  0  0
    2.7036    0.5729   -0.1661 C   0  0  0  0  0  0  0  0  0  0  0  0
    3.0207   -0.7720   -0.3874 C   0  0  0  0  0  0  0  0  0  0  0  0
    2.0656   -1.7680   -0.2768 C   0  0  0  0  0  0  0  0  0  0  0  0
    0.7718   -1.3907    0.0622 C   0  0  0  0  0  0  0  0  0  0  0  0
    0.4843   -0.0608    0.2740 C   0  0  0  0  0  0  0  0  0  0  0  0
   -2.4076   -1.2622   -2.2157 H   0  0  0  0  0  0  0  0  0  0  0  0
   -3.7295   -0.6402   -0.3035 H   0  0  0  0  0  0  0  0  0  0  0  0
   -2.7712    0.6687   -1.0108 H   0  0  0  0  0  0  0  0  0  0  0  0
   -1.9093   -0.9786    1.4450 H   0  0  0  0  0  0  0  0  0  0  0  0
   -2.6885    0.6016    1.4371 H   0  0  0  0  0  0  0  0  0  0  0  0
   -1.1527    2.6864    0.9651 H   0  0  0  0  0  0  0  0  0  0  0  0
    1.3485    3.0849    0.4292 H   0  0  0  0  0  0  0  0  0  0  0  0
    3.4579    1.3485   -0.2543 H   0  0  0  0  0  0  0  0  0  0  0  0
    4.0227   -1.0785   -0.6524 H   0  0  0  0  0  0  0  0  0  0  0  0
    2.3384   -2.8116   -0.4545 H   0  0  0  0  0  0  0  0  0  0  0  0
    0.0441   -2.1885    0.1473 H   0  0  0  0  0  0  0  0  0  0  0  0
  1  2  1  0
  2  3  1  0
  3  4  1  0
  4  5  2  0
  5  6  1  0
  6  7  1  0
  7  8  2  0
  8  9  1  0
  9 10  2  0
 10 11  1  0
 11 12  2  0
 12  4  1  0
 12  7  1  0
  1 13  1  0
  2 14  1  0
  2 15  1  0
  3 16  1  0
  3 17  1  0
  5 18  1  0
  6 19  1  0
  8 20  1  0
  9 21  1  0
 10 22  1  0
 11 23  1  0
M  END
>  <coordinate_phase>  (29) 
ETKDG_before_MMFF

>  <molecule_id>  (29) 
tryptophol

>  <seed>  (29) 
20260930

>  <conformer_id>  (29) 
28

$$$$
tryptophol_20260930_29
     RDKit          3D

 23 24  0  0  0  0  0  0  0  0999 V2000
    4.1727    0.4826    0.2438 O   0  0  0  0  0  0  0  0  0  0  0  0
    3.0628   -0.3704    0.2402 C   0  0  0  0  0  0  0  0  0  0  0  0
    1.8225    0.5048    0.0895 C   0  0  0  0  0  0  0  0  0  0  0  0
    0.5982   -0.3064    0.0750 C   0  0  0  0  0  0  0  0  0  0  0  0
    0.4350   -1.6704    0.1739 C   0  0  0  0  0  0  0  0  0  0  0  0
   -0.8691   -1.9590    0.1124 N   0  0  0  0  0  0  0  0  0  0  0  0
   -1.5835   -0.8161   -0.0257 C   0  0  0  0  0  0  0  0  0  0  0  0
   -2.9381   -0.5337   -0.1363 C   0  0  0  0  0  0  0  0  0  0  0  0
   -3.3935    0.7818   -0.2714 C   0  0  0  0  0  0  0  0  0  0  0  0
   -2.4849    1.8257   -0.2961 C   0  0  0  0  0  0  0  0  0  0  0  0
   -1.1466    1.5351   -0.1859 C   0  0  0  0  0  0  0  0  0  0  0  0
   -0.6761    0.2464   -0.0520 C   0  0  0  0  0  0  0  0  0  0  0  0
    4.6438    0.5016   -0.6295 H   0  0  0  0  0  0  0  0  0  0  0  0
    3.0918   -1.0717   -0.6136 H   0  0  0  0  0  0  0  0  0  0  0  0
    3.0220   -0.9775    1.1673 H   0  0  0  0  0  0  0  0  0  0  0  0
    1.7573    1.2400    0.9133 H   0  0  0  0  0  0  0  0  0  0  0  0
    1.9147    1.0537   -0.8592 H   0  0  0  0  0  0  0  0  0  0  0  0
    1.2636   -2.3610    0.2831 H   0  0  0  0  0  0  0  0  0  0  0  0
   -1.3302   -2.9098    0.1587 H   0  0  0  0  0  0  0  0  0  0  0  0
   -3.6488   -1.3455   -0.1173 H   0  0  0  0  0  0  0  0  0  0  0  0
   -4.4599    0.9704   -0.3557 H   0  0  0  0  0  0  0  0  0  0  0  0
   -2.8442    2.8506   -0.4017 H   0  0  0  0  0  0  0  0  0  0  0  0
   -0.4095    2.3288   -0.2017 H   0  0  0  0  0  0  0  0  0  0  0  0
  1  2  1  0
  2  3  1  0
  3  4  1  0
  4  5  2  0
  5  6  1  0
  6  7  1  0
  7  8  2  0
  8  9  1  0
  9 10  2  0
 10 11  1  0
 11 12  2  0
 12  4  1  0
 12  7  1  0
  1 13  1  0
  2 14  1  0
  2 15  1  0
  3 16  1  0
  3 17  1  0
  5 18  1  0
  6 19  1  0
  8 20  1  0
  9 21  1  0
 10 22  1  0
 11 23  1  0
M  END
>  <coordinate_phase>  (30) 
ETKDG_before_MMFF

>  <molecule_id>  (30) 
tryptophol

>  <seed>  (30) 
20260930

>  <conformer_id>  (30) 
29

$$$$
tryptophol_20260930_30
     RDKit          3D

 23 24  0  0  0  0  0  0  0  0999 V2000
    2.4868   -1.1414   -0.8911 O   0  0  0  0  0  0  0  0  0  0  0  0
    2.6514   -0.4272    0.2926 C   0  0  0  0  0  0  0  0  0  0  0  0
    1.9873    0.9015    0.2541 C   0  0  0  0  0  0  0  0  0  0  0  0
    0.5561    0.9568    0.0181 C   0  0  0  0  0  0  0  0  0  0  0  0
   -0.0792    2.1446   -0.4054 C   0  0  0  0  0  0  0  0  0  0  0  0
   -1.3861    1.9064   -0.5496 N   0  0  0  0  0  0  0  0  0  0  0  0
   -1.6675    0.6346   -0.2489 C   0  0  0  0  0  0  0  0  0  0  0  0
   -2.8617   -0.0509   -0.2556 C   0  0  0  0  0  0  0  0  0  0  0  0
   -2.8685   -1.3847    0.1035 C   0  0  0  0  0  0  0  0  0  0  0  0
   -1.6590   -1.9758    0.4577 C   0  0  0  0  0  0  0  0  0  0  0  0
   -0.4696   -1.2812    0.4614 C   0  0  0  0  0  0  0  0  0  0  0  0
   -0.4674    0.0489    0.1016 C   0  0  0  0  0  0  0  0  0  0  0  0
    3.3000   -1.5811   -1.1831 H   0  0  0  0  0  0  0  0  0  0  0  0
    2.5175   -1.0026    1.2122 H   0  0  0  0  0  0  0  0  0  0  0  0
    3.7925   -0.2448    0.2959 H   0  0  0  0  0  0  0  0  0  0  0  0
    2.5370    1.5766   -0.4860 H   0  0  0  0  0  0  0  0  0  0  0  0
    2.1764    1.4270    1.2423 H   0  0  0  0  0  0  0  0  0  0  0  0
    0.3859    3.1036   -0.5908 H   0  0  0  0  0  0  0  0  0  0  0  0
   -2.0855    2.6322   -0.8559 H   0  0  0  0  0  0  0  0  0  0  0  0
   -3.7547    0.4918   -0.5424 H   0  0  0  0  0  0  0  0  0  0  0  0
   -3.7989   -1.9204    0.0971 H   0  0  0  0  0  0  0  0  0  0  0  0
   -1.7218   -3.0247    0.7281 H   0  0  0  0  0  0  0  0  0  0  0  0
    0.4289   -1.7891    0.7442 H   0  0  0  0  0  0  0  0  0  0  0  0
  1  2  1  0
  2  3  1  0
  3  4  1  0
  4  5  2  0
  5  6  1  0
  6  7  1  0
  7  8  2  0
  8  9  1  0
  9 10  2  0
 10 11  1  0
 11 12  2  0
 12  4  1  0
 12  7  1  0
  1 13  1  0
  2 14  1  0
  2 15  1  0
  3 16  1  0
  3 17  1  0
  5 18  1  0
  6 19  1  0
  8 20  1  0
  9 21  1  0
 10 22  1  0
 11 23  1  0
M  END
>  <coordinate_phase>  (31) 
ETKDG_before_MMFF

>  <molecule_id>  (31) 
tryptophol

>  <seed>  (31) 
20260930

>  <conformer_id>  (31) 
30

$$$$
tryptophol_20260930_31
     RDKit          3D

 23 24  0  0  0  0  0  0  0  0999 V2000
   -3.0659    1.1446    0.0783 O   0  0  0  0  0  0  0  0  0  0  0  0
   -2.6798    0.1163   -0.7521 C   0  0  0  0  0  0  0  0  0  0  0  0
   -1.9245   -0.9857   -0.0404 C   0  0  0  0  0  0  0  0  0  0  0  0
   -0.6917   -0.5222    0.5984 C   0  0  0  0  0  0  0  0  0  0  0  0
   -0.4503   -0.2824    1.9396 C   0  0  0  0  0  0  0  0  0  0  0  0
    0.7994    0.1320    2.1381 N   0  0  0  0  0  0  0  0  0  0  0  0
    1.3923    0.1706    0.9358 C   0  0  0  0  0  0  0  0  0  0  0  0
    2.6828    0.5245    0.5296 C   0  0  0  0  0  0  0  0  0  0  0  0
    3.0551    0.4787   -0.7994 C   0  0  0  0  0  0  0  0  0  0  0  0
    2.1352    0.0720   -1.7770 C   0  0  0  0  0  0  0  0  0  0  0  0
    0.8543   -0.2791   -1.3731 C   0  0  0  0  0  0  0  0  0  0  0  0
    0.4785   -0.2342   -0.0450 C   0  0  0  0  0  0  0  0  0  0  0  0
   -2.3323    1.7434    0.3529 H   0  0  0  0  0  0  0  0  0  0  0  0
   -3.6334   -0.3664   -1.1108 H   0  0  0  0  0  0  0  0  0  0  0  0
   -2.1743    0.5159   -1.6264 H   0  0  0  0  0  0  0  0  0  0  0  0
   -2.6377   -1.3615    0.7506 H   0  0  0  0  0  0  0  0  0  0  0  0
   -1.7988   -1.8258   -0.7509 H   0  0  0  0  0  0  0  0  0  0  0  0
   -1.2389   -0.4414    2.6905 H   0  0  0  0  0  0  0  0  0  0  0  0
    1.2313    0.3792    3.0542 H   0  0  0  0  0  0  0  0  0  0  0  0
    3.3580    0.8263    1.2888 H   0  0  0  0  0  0  0  0  0  0  0  0
    4.0557    0.7496   -1.1305 H   0  0  0  0  0  0  0  0  0  0  0  0
    2.4415    0.0382   -2.8160 H   0  0  0  0  0  0  0  0  0  0  0  0
    0.1437   -0.5926   -2.1351 H   0  0  0  0  0  0  0  0  0  0  0  0
  1  2  1  0
  2  3  1  0
  3  4  1  0
  4  5  2  0
  5  6  1  0
  6  7  1  0
  7  8  2  0
  8  9  1  0
  9 10  2  0
 10 11  1  0
 11 12  2  0
 12  4  1  0
 12  7  1  0
  1 13  1  0
  2 14  1  0
  2 15  1  0
  3 16  1  0
  3 17  1  0
  5 18  1  0
  6 19  1  0
  8 20  1  0
  9 21  1  0
 10 22  1  0
 11 23  1  0
M  END
>  <coordinate_phase>  (32) 
ETKDG_before_MMFF

>  <molecule_id>  (32) 
tryptophol

>  <seed>  (32) 
20260930

>  <conformer_id>  (32) 
31

$$$$
tryptophol_20260930_32
     RDKit          3D

 23 24  0  0  0  0  0  0  0  0999 V2000
   -3.4783    0.4371    0.7361 O   0  0  0  0  0  0  0  0  0  0  0  0
   -3.0310   -0.6672    0.0300 C   0  0  0  0  0  0  0  0  0  0  0  0
   -1.6186   -1.0047    0.4283 C   0  0  0  0  0  0  0  0  0  0  0  0
   -0.6601    0.0818    0.1577 C   0  0  0  0  0  0  0  0  0  0  0  0
   -0.8373    1.4315    0.0011 C   0  0  0  0  0  0  0  0  0  0  0  0
    0.3650    2.0090   -0.2414 N   0  0  0  0  0  0  0  0  0  0  0  0
    1.3228    1.0661   -0.2461 C   0  0  0  0  0  0  0  0  0  0  0  0
    2.6797    1.1431   -0.4416 C   0  0  0  0  0  0  0  0  0  0  0  0
    3.4324   -0.0162   -0.3877 C   0  0  0  0  0  0  0  0  0  0  0  0
    2.8223   -1.2533   -0.1378 C   0  0  0  0  0  0  0  0  0  0  0  0
    1.4540   -1.3212    0.0575 C   0  0  0  0  0  0  0  0  0  0  0  0
    0.7087   -0.1596    0.0023 C   0  0  0  0  0  0  0  0  0  0  0  0
   -4.2457    0.8661    0.2741 H   0  0  0  0  0  0  0  0  0  0  0  0
   -3.7008   -1.5204    0.2504 H   0  0  0  0  0  0  0  0  0  0  0  0
   -3.1176   -0.5007   -1.0742 H   0  0  0  0  0  0  0  0  0  0  0  0
   -1.6258   -1.3274    1.4905 H   0  0  0  0  0  0  0  0  0  0  0  0
   -1.3059   -1.9333   -0.1336 H   0  0  0  0  0  0  0  0  0  0  0  0
   -1.8042    1.9560    0.0615 H   0  0  0  0  0  0  0  0  0  0  0  0
    0.5248    3.0360   -0.4010 H   0  0  0  0  0  0  0  0  0  0  0  0
    3.1379    2.1160   -0.6359 H   0  0  0  0  0  0  0  0  0  0  0  0
    4.5122    0.0043   -0.5377 H   0  0  0  0  0  0  0  0  0  0  0  0
    3.4353   -2.1655   -0.0986 H   0  0  0  0  0  0  0  0  0  0  0  0
    1.0304   -2.2774    0.2459 H   0  0  0  0  0  0  0  0  0  0  0  0
  1  2  1  0
  2  3  1  0
  3  4  1  0
  4  5  2  0
  5  6  1  0
  6  7  1  0
  7  8  2  0
  8  9  1  0
  9 10  2  0
 10 11  1  0
 11 12  2  0
 12  4  1  0
 12  7  1  0
  1 13  1  0
  2 14  1  0
  2 15  1  0
  3 16  1  0
  3 17  1  0
  5 18  1  0
  6 19  1  0
  8 20  1  0
  9 21  1  0
 10 22  1  0
 11 23  1  0
M  END
>  <coordinate_phase>  (33) 
ETKDG_before_MMFF

>  <molecule_id>  (33) 
tryptophol

>  <seed>  (33) 
20260930

>  <conformer_id>  (33) 
32

$$$$
