
     RDKit          3D

 30 32  0  0  0  0  0  0  0  0999 V2000
    5.8292    0.1372   -0.2595 C   0  0  0  0  0  0  0  0  0  0  0  0
    4.6558    0.9119   -0.4688 O   0  0  0  0  0  0  0  0  0  0  0  0
    3.4544    0.2906   -0.2514 C   0  0  0  0  0  0  0  0  0  0  0  0
    3.2809   -1.0331    0.1539 C   0  0  0  0  0  0  0  0  0  0  0  0
    2.0012   -1.5720    0.3480 C   0  0  0  0  0  0  0  0  0  0  0  0
    0.9033   -0.7359    0.1223 C   0  0  0  0  0  0  0  0  0  0  0  0
   -0.4451   -0.9859    0.2294 N   0  0  0  0  0  0  0  0  0  0  0  0
   -1.1846    0.1332   -0.0868 C   0  0  0  0  0  0  0  0  0  0  0  0
   -0.2707    1.1195   -0.4182 C   0  0  0  0  0  0  0  0  0  0  0  0
    1.0406    0.5874   -0.2841 C   0  0  0  0  0  0  0  0  0  0  0  0
    2.3358    1.1062   -0.4725 C   0  0  0  0  0  0  0  0  0  0  0  0
   -2.6479    0.1547   -0.0702 C   0  0  0  0  0  0  0  0  0  0  0  0
   -3.3723   -0.5558    0.8973 C   0  0  0  0  0  0  0  0  0  0  0  0
   -4.7699   -0.5303    0.9026 C   0  0  0  0  0  0  0  0  0  0  0  0
   -5.4585    0.2064   -0.0584 C   0  0  0  0  0  0  0  0  0  0  0  0
   -4.7513    0.9210   -1.0223 C   0  0  0  0  0  0  0  0  0  0  0  0
   -3.3541    0.8967   -1.0264 C   0  0  0  0  0  0  0  0  0  0  0  0
    5.9062   -0.1895    0.7829 H   0  0  0  0  0  0  0  0  0  0  0  0
    5.8675   -0.7151   -0.9460 H   0  0  0  0  0  0  0  0  0  0  0  0
    6.6929    0.7745   -0.4725 H   0  0  0  0  0  0  0  0  0  0  0  0
    4.1293   -1.6864    0.3311 H   0  0  0  0  0  0  0  0  0  0  0  0
    1.8752   -2.6028    0.6629 H   0  0  0  0  0  0  0  0  0  0  0  0
   -0.8394   -1.8795    0.4840 H   0  0  0  0  0  0  0  0  0  0  0  0
   -0.5180    2.1297   -0.7175 H   0  0  0  0  0  0  0  0  0  0  0  0
    2.4706    2.1363   -0.7890 H   0  0  0  0  0  0  0  0  0  0  0  0
   -2.8598   -1.1192    1.6725 H   0  0  0  0  0  0  0  0  0  0  0  0
   -5.3198   -1.0803    1.6618 H   0  0  0  0  0  0  0  0  0  0  0  0
   -6.5452    0.2276   -0.0536 H   0  0  0  0  0  0  0  0  0  0  0  0
   -5.2848    1.4982   -1.7730 H   0  0  0  0  0  0  0  0  0  0  0  0
   -2.8213    1.4549   -1.7927 H   0  0  0  0  0  0  0  0  0  0  0  0
  1  2  1  0
  2  3  1  0
  3  4  2  0
  4  5  1  0
  5  6  2  0
  6  7  1  0
  7  8  1  0
  8  9  2  0
  9 10  1  0
 10 11  2  0
  8 12  1  0
 12 13  2  0
 13 14  1  0
 14 15  2  0
 15 16  1  0
 16 17  2  0
 11  3  1  0
 10  6  1  0
 17 12  1  0
  1 18  1  0
  1 19  1  0
  1 20  1  0
  4 21  1  0
  5 22  1  0
  7 23  1  0
  9 24  1  0
 11 25  1  0
 13 26  1  0
 14 27  1  0
 15 28  1  0
 16 29  1  0
 17 30  1  0
M  END
