
     RDKit          3D

 18 19  0  0  0  0  0  0  0  0999 V2000
    2.2540    0.8383    0.1806 C   0  0  0  0  0  0  0  0  0  0  0  0
    2.3954   -0.5240   -0.1280 C   0  0  0  0  0  0  0  0  0  0  0  0
    1.2697   -1.3297   -0.3200 C   0  0  0  0  0  0  0  0  0  0  0  0
    0.0194   -0.7484   -0.2207 C   0  0  0  0  0  0  0  0  0  0  0  0
   -0.1178    0.5987    0.1042 C   0  0  0  0  0  0  0  0  0  0  0  0
    0.9861    1.4093    0.3078 C   0  0  0  0  0  0  0  0  0  0  0  0
   -1.5595    0.9260    0.2562 C   0  0  0  0  0  0  0  0  0  0  0  0
   -2.2070   -0.3395   -0.3307 C   0  0  0  0  0  0  0  0  0  0  0  0
   -1.2165   -1.4388   -0.3379 N   0  0  0  0  0  0  0  0  0  0  0  0
    3.1403    1.4499    0.3314 H   0  0  0  0  0  0  0  0  0  0  0  0
    3.3887   -0.9568   -0.2164 H   0  0  0  0  0  0  0  0  0  0  0  0
    1.3743   -2.3829   -0.5565 H   0  0  0  0  0  0  0  0  0  0  0  0
    0.8744    2.4562    0.5692 H   0  0  0  0  0  0  0  0  0  0  0  0
   -1.8544    1.8221   -0.2966 H   0  0  0  0  0  0  0  0  0  0  0  0
   -1.8128    1.0391    1.3154 H   0  0  0  0  0  0  0  0  0  0  0  0
   -3.1037   -0.6268    0.2291 H   0  0  0  0  0  0  0  0  0  0  0  0
   -2.5173   -0.1522   -1.3667 H   0  0  0  0  0  0  0  0  0  0  0  0
   -1.3133   -2.0404    0.4795 H   0  0  0  0  0  0  0  0  0  0  0  0
  1  2  2  0
  2  3  1  0
  3  4  2  0
  4  5  1  0
  5  6  2  0
  5  7  1  0
  7  8  1  0
  8  9  1  0
  6  1  1  0
  9  4  1  0
  1 10  1  0
  2 11  1  0
  3 12  1  0
  6 13  1  0
  7 14  1  0
  7 15  1  0
  8 16  1  0
  8 17  1  0
  9 18  1  0
M  END
$$$$

     RDKit          3D

 18 19  0  0  0  0  0  0  0  0999 V2000
    2.2501    0.7652   -0.4094 C   0  0  0  0  0  0  0  0  0  0  0  0
    2.3810   -0.5941   -0.0835 C   0  0  0  0  0  0  0  0  0  0  0  0
    1.2558   -1.3610    0.2312 C   0  0  0  0  0  0  0  0  0  0  0  0
    0.0187   -0.7440    0.2354 C   0  0  0  0  0  0  0  0  0  0  0  0
   -0.1100    0.5998   -0.1068 C   0  0  0  0  0  0  0  0  0  0  0  0
    0.9926    1.3719   -0.4312 C   0  0  0  0  0  0  0  0  0  0  0  0
   -1.5496    0.9677   -0.1314 C   0  0  0  0  0  0  0  0  0  0  0  0
   -2.1750   -0.2651    0.5427 C   0  0  0  0  0  0  0  0  0  0  0  0
   -1.2199   -1.3938    0.4833 N   0  0  0  0  0  0  0  0  0  0  0  0
    3.1353    1.3462   -0.6563 H   0  0  0  0  0  0  0  0  0  0  0  0
    3.3654   -1.0551   -0.0780 H   0  0  0  0  0  0  0  0  0  0  0  0
    1.3521   -2.4117    0.4816 H   0  0  0  0  0  0  0  0  0  0  0  0
    0.8867    2.4161   -0.7054 H   0  0  0  0  0  0  0  0  0  0  0  0
   -1.8979    1.0667   -1.1647 H   0  0  0  0  0  0  0  0  0  0  0  0
   -1.7658    1.8836    0.4255 H   0  0  0  0  0  0  0  0  0  0  0  0
   -3.1281   -0.5363    0.0757 H   0  0  0  0  0  0  0  0  0  0  0  0
   -2.3813   -0.0472    1.5985 H   0  0  0  0  0  0  0  0  0  0  0  0
   -1.4101   -2.0088   -0.3073 H   0  0  0  0  0  0  0  0  0  0  0  0
  1  2  2  0
  2  3  1  0
  3  4  2  0
  4  5  1  0
  5  6  2  0
  5  7  1  0
  7  8  1  0
  8  9  1  0
  6  1  1  0
  9  4  1  0
  1 10  1  0
  2 11  1  0
  3 12  1  0
  6 13  1  0
  7 14  1  0
  7 15  1  0
  8 16  1  0
  8 17  1  0
  9 18  1  0
M  END
$$$$

     RDKit          3D

 18 19  0  0  0  0  0  0  0  0999 V2000
    2.2739   -0.7654    0.2442 C   0  0  0  0  0  0  0  0  0  0  0  0
    2.3818    0.5618   -0.2008 C   0  0  0  0  0  0  0  0  0  0  0  0
    1.2366    1.3189   -0.4628 C   0  0  0  0  0  0  0  0  0  0  0  0
    0.0007    0.7227   -0.2948 C   0  0  0  0  0  0  0  0  0  0  0  0
   -0.1033   -0.5877    0.1648 C   0  0  0  0  0  0  0  0  0  0  0  0
    1.0203   -1.3489    0.4390 C   0  0  0  0  0  0  0  0  0  0  0  0
   -1.5360   -0.9301    0.3614 C   0  0  0  0  0  0  0  0  0  0  0  0
   -2.2163    0.2552   -0.3438 C   0  0  0  0  0  0  0  0  0  0  0  0
   -1.2515    1.3701   -0.4699 N   0  0  0  0  0  0  0  0  0  0  0  0
    3.1750   -1.3388    0.4478 H   0  0  0  0  0  0  0  0  0  0  0  0
    3.3642    1.0056   -0.3407 H   0  0  0  0  0  0  0  0  0  0  0  0
    1.3154    2.3450   -0.8047 H   0  0  0  0  0  0  0  0  0  0  0  0
    0.9345   -2.3665    0.8051 H   0  0  0  0  0  0  0  0  0  0  0  0
   -1.7799   -0.9419    1.4287 H   0  0  0  0  0  0  0  0  0  0  0  0
   -1.8138   -1.8836   -0.0962 H   0  0  0  0  0  0  0  0  0  0  0  0
   -2.5289   -0.0421   -1.3531 H   0  0  0  0  0  0  0  0  0  0  0  0
   -3.1158    0.5772    0.1921 H   0  0  0  0  0  0  0  0  0  0  0  0
   -1.3569    2.0485    0.2839 H   0  0  0  0  0  0  0  0  0  0  0  0
  1  2  2  0
  2  3  1  0
  3  4  2  0
  4  5  1  0
  5  6  2  0
  5  7  1  0
  7  8  1  0
  8  9  1  0
  6  1  1  0
  9  4  1  0
  1 10  1  0
  2 11  1  0
  3 12  1  0
  6 13  1  0
  7 14  1  0
  7 15  1  0
  8 16  1  0
  8 17  1  0
  9 18  1  0
M  END
$$$$

     RDKit          3D

 18 19  0  0  0  0  0  0  0  0999 V2000
    2.2688   -0.6093    0.5437 C   0  0  0  0  0  0  0  0  0  0  0  0
    2.3079    0.7602    0.2345 C   0  0  0  0  0  0  0  0  0  0  0  0
    1.1516    1.4319   -0.1732 C   0  0  0  0  0  0  0  0  0  0  0  0
   -0.0318    0.7213   -0.2390 C   0  0  0  0  0  0  0  0  0  0  0  0
   -0.0621   -0.6432    0.0487 C   0  0  0  0  0  0  0  0  0  0  0  0
    1.0751   -1.3265    0.4426 C   0  0  0  0  0  0  0  0  0  0  0  0
   -1.4387   -1.1596   -0.1868 C   0  0  0  0  0  0  0  0  0  0  0  0
   -2.2181    0.1658   -0.2734 C   0  0  0  0  0  0  0  0  0  0  0  0
   -1.2778    1.2204   -0.6937 N   0  0  0  0  0  0  0  0  0  0  0  0
    3.1802   -1.1173    0.8496 H   0  0  0  0  0  0  0  0  0  0  0  0
    3.2493    1.2999    0.2995 H   0  0  0  0  0  0  0  0  0  0  0  0
    1.1876    2.4823   -0.4388 H   0  0  0  0  0  0  0  0  0  0  0  0
    1.0464   -2.3891    0.6585 H   0  0  0  0  0  0  0  0  0  0  0  0
   -1.8066   -1.7897    0.6274 H   0  0  0  0  0  0  0  0  0  0  0  0
   -1.4807   -1.7046   -1.1355 H   0  0  0  0  0  0  0  0  0  0  0  0
   -2.6284    0.4259    0.7117 H   0  0  0  0  0  0  0  0  0  0  0  0
   -3.0573    0.0917   -0.9726 H   0  0  0  0  0  0  0  0  0  0  0  0
   -1.4655    2.1400   -0.3031 H   0  0  0  0  0  0  0  0  0  0  0  0
  1  2  2  0
  2  3  1  0
  3  4  2  0
  4  5  1  0
  5  6  2  0
  5  7  1  0
  7  8  1  0
  8  9  1  0
  6  1  1  0
  9  4  1  0
  1 10  1  0
  2 11  1  0
  3 12  1  0
  6 13  1  0
  7 14  1  0
  7 15  1  0
  8 16  1  0
  8 17  1  0
  9 18  1  0
M  END
$$$$

     RDKit          3D

 18 19  0  0  0  0  0  0  0  0999 V2000
    2.1223    1.1220    0.2296 C   0  0  0  0  0  0  0  0  0  0  0  0
    2.4378   -0.2443    0.1619 C   0  0  0  0  0  0  0  0  0  0  0  0
    1.4293   -1.1999    0.0109 C   0  0  0  0  0  0  0  0  0  0  0  0
    0.1210   -0.7656   -0.0923 C   0  0  0  0  0  0  0  0  0  0  0  0
   -0.1905    0.5889   -0.0058 C   0  0  0  0  0  0  0  0  0  0  0  0
    0.7948    1.5485    0.1540 C   0  0  0  0  0  0  0  0  0  0  0  0
   -1.6666    0.7592   -0.0316 C   0  0  0  0  0  0  0  0  0  0  0  0
   -2.1132   -0.6502   -0.4550 C   0  0  0  0  0  0  0  0  0  0  0  0
   -1.0165   -1.6099   -0.1982 N   0  0  0  0  0  0  0  0  0  0  0  0
    2.9188    1.8520    0.3519 H   0  0  0  0  0  0  0  0  0  0  0  0
    3.4751   -0.5624    0.2298 H   0  0  0  0  0  0  0  0  0  0  0  0
    1.6683   -2.2565   -0.0398 H   0  0  0  0  0  0  0  0  0  0  0  0
    0.5468    2.6019    0.2296 H   0  0  0  0  0  0  0  0  0  0  0  0
   -1.9965    1.5175   -0.7470 H   0  0  0  0  0  0  0  0  0  0  0  0
   -2.0376    1.0022    0.9694 H   0  0  0  0  0  0  0  0  0  0  0  0
   -2.3338   -0.6632   -1.5302 H   0  0  0  0  0  0  0  0  0  0  0  0
   -3.0271   -0.9543    0.0668 H   0  0  0  0  0  0  0  0  0  0  0  0
   -1.1324   -2.0860    0.6959 H   0  0  0  0  0  0  0  0  0  0  0  0
  1  2  2  0
  2  3  1  0
  3  4  2  0
  4  5  1  0
  5  6  2  0
  5  7  1  0
  7  8  1  0
  8  9  1  0
  6  1  1  0
  9  4  1  0
  1 10  1  0
  2 11  1  0
  3 12  1  0
  6 13  1  0
  7 14  1  0
  7 15  1  0
  8 16  1  0
  8 17  1  0
  9 18  1  0
M  END
$$$$

     RDKit          3D

 18 19  0  0  0  0  0  0  0  0999 V2000
    2.2743   -0.7746    0.2091 C   0  0  0  0  0  0  0  0  0  0  0  0
    2.3783    0.6106    0.0051 C   0  0  0  0  0  0  0  0  0  0  0  0
    1.2324    1.3907   -0.1729 C   0  0  0  0  0  0  0  0  0  0  0  0
    0.0009    0.7628   -0.1654 C   0  0  0  0  0  0  0  0  0  0  0  0
   -0.1002   -0.6083    0.0562 C   0  0  0  0  0  0  0  0  0  0  0  0
    1.0237   -1.3948    0.2445 C   0  0  0  0  0  0  0  0  0  0  0  0
   -1.5338   -0.9931    0.1269 C   0  0  0  0  0  0  0  0  0  0  0  0
   -2.2039    0.2900   -0.3926 C   0  0  0  0  0  0  0  0  0  0  0  0
   -1.2537    1.4189   -0.2815 N   0  0  0  0  0  0  0  0  0  0  0  0
    3.1756   -1.3661    0.3505 H   0  0  0  0  0  0  0  0  0  0  0  0
    3.3580    1.0811   -0.0125 H   0  0  0  0  0  0  0  0  0  0  0  0
    1.3080    2.4612   -0.3288 H   0  0  0  0  0  0  0  0  0  0  0  0
    0.9398   -2.4612    0.4253 H   0  0  0  0  0  0  0  0  0  0  0  0
   -1.8222   -1.1918    1.1643 H   0  0  0  0  0  0  0  0  0  0  0  0
   -1.7759   -1.8555   -0.5002 H   0  0  0  0  0  0  0  0  0  0  0  0
   -3.1305    0.5058    0.1504 H   0  0  0  0  0  0  0  0  0  0  0  0
   -2.4686    0.1689   -1.4510 H   0  0  0  0  0  0  0  0  0  0  0  0
   -1.4023    1.9555    0.5726 H   0  0  0  0  0  0  0  0  0  0  0  0
  1  2  2  0
  2  3  1  0
  3  4  2  0
  4  5  1  0
  5  6  2  0
  5  7  1  0
  7  8  1  0
  8  9  1  0
  6  1  1  0
  9  4  1  0
  1 10  1  0
  2 11  1  0
  3 12  1  0
  6 13  1  0
  7 14  1  0
  7 15  1  0
  8 16  1  0
  8 17  1  0
  9 18  1  0
M  END
$$$$

     RDKit          3D

 18 19  0  0  0  0  0  0  0  0999 V2000
    2.3075    0.5935    0.3710 C   0  0  0  0  0  0  0  0  0  0  0  0
    2.3127   -0.7784    0.0705 C   0  0  0  0  0  0  0  0  0  0  0  0
    1.1241   -1.4430   -0.2460 C   0  0  0  0  0  0  0  0  0  0  0  0
   -0.0551   -0.7228   -0.2304 C   0  0  0  0  0  0  0  0  0  0  0  0
   -0.0531    0.6440    0.0480 C   0  0  0  0  0  0  0  0  0  0  0  0
    1.1154    1.3203    0.3521 C   0  0  0  0  0  0  0  0  0  0  0  0
   -1.4391    1.1707   -0.0899 C   0  0  0  0  0  0  0  0  0  0  0  0
   -2.2335   -0.1485   -0.1086 C   0  0  0  0  0  0  0  0  0  0  0  0
   -1.3351   -1.2142   -0.5885 N   0  0  0  0  0  0  0  0  0  0  0  0
    3.2430    1.0957    0.6052 H   0  0  0  0  0  0  0  0  0  0  0  0
    3.2519   -1.3258    0.0706 H   0  0  0  0  0  0  0  0  0  0  0  0
    1.1320   -2.4956   -0.5053 H   0  0  0  0  0  0  0  0  0  0  0  0
    1.1113    2.3846    0.5612 H   0  0  0  0  0  0  0  0  0  0  0  0
   -1.5462    1.7092   -1.0372 H   0  0  0  0  0  0  0  0  0  0  0  0
   -1.7411    1.8097    0.7442 H   0  0  0  0  0  0  0  0  0  0  0  0
   -2.5724   -0.3979    0.9059 H   0  0  0  0  0  0  0  0  0  0  0  0
   -3.1211   -0.0722   -0.7450 H   0  0  0  0  0  0  0  0  0  0  0  0
   -1.5012   -2.1293   -0.1780 H   0  0  0  0  0  0  0  0  0  0  0  0
  1  2  2  0
  2  3  1  0
  3  4  2  0
  4  5  1  0
  5  6  2  0
  5  7  1  0
  7  8  1  0
  8  9  1  0
  6  1  1  0
  9  4  1  0
  1 10  1  0
  2 11  1  0
  3 12  1  0
  6 13  1  0
  7 14  1  0
  7 15  1  0
  8 16  1  0
  8 17  1  0
  9 18  1  0
M  END
$$$$

     RDKit          3D

 18 19  0  0  0  0  0  0  0  0999 V2000
    2.2105    0.9006   -0.3443 C   0  0  0  0  0  0  0  0  0  0  0  0
    2.4175   -0.4235    0.0740 C   0  0  0  0  0  0  0  0  0  0  0  0
    1.3327   -1.2498    0.3804 C   0  0  0  0  0  0  0  0  0  0  0  0
    0.0575   -0.7251    0.2831 C   0  0  0  0  0  0  0  0  0  0  0  0
   -0.1454    0.5827   -0.1503 C   0  0  0  0  0  0  0  0  0  0  0  0
    0.9170    1.4119   -0.4678 C   0  0  0  0  0  0  0  0  0  0  0  0
   -1.6036    0.8429   -0.2704 C   0  0  0  0  0  0  0  0  0  0  0  0
   -2.1777   -0.3892    0.4489 C   0  0  0  0  0  0  0  0  0  0  0  0
   -1.1447   -1.4471    0.5098 N   0  0  0  0  0  0  0  0  0  0  0  0
    3.0655    1.5285   -0.5832 H   0  0  0  0  0  0  0  0  0  0  0  0
    3.4297   -0.8106    0.1583 H   0  0  0  0  0  0  0  0  0  0  0  0
    1.4879   -2.2737    0.7020 H   0  0  0  0  0  0  0  0  0  0  0  0
    0.7540    2.4273   -0.8133 H   0  0  0  0  0  0  0  0  0  0  0  0
   -1.9128    1.7725    0.2151 H   0  0  0  0  0  0  0  0  0  0  0  0
   -1.9010    0.8539   -1.3241 H   0  0  0  0  0  0  0  0  0  0  0  0
   -3.0828   -0.7566   -0.0469 H   0  0  0  0  0  0  0  0  0  0  0  0
   -2.4559   -0.1236    1.4770 H   0  0  0  0  0  0  0  0  0  0  0  0
   -1.2484   -2.1208   -0.2484 H   0  0  0  0  0  0  0  0  0  0  0  0
  1  2  2  0
  2  3  1  0
  3  4  2  0
  4  5  1  0
  5  6  2  0
  5  7  1  0
  7  8  1  0
  8  9  1  0
  6  1  1  0
  9  4  1  0
  1 10  1  0
  2 11  1  0
  3 12  1  0
  6 13  1  0
  7 14  1  0
  7 15  1  0
  8 16  1  0
  8 17  1  0
  9 18  1  0
M  END
$$$$
