
     RDKit          3D

 18 19  0  0  0  0  0  0  0  0999 V2000
    2.2461   -0.8708    0.1124 C   0  0  0  0  0  0  0  0  0  0  0  0
    2.4002    0.5140   -0.0599 C   0  0  0  0  0  0  0  0  0  0  0  0
    1.2822    1.3441   -0.1793 C   0  0  0  0  0  0  0  0  0  0  0  0
    0.0268    0.7663   -0.1459 C   0  0  0  0  0  0  0  0  0  0  0  0
   -0.1232   -0.6050    0.0441 C   0  0  0  0  0  0  0  0  0  0  0  0
    0.9729   -1.4409    0.1744 C   0  0  0  0  0  0  0  0  0  0  0  0
   -1.5684   -0.9336    0.1536 C   0  0  0  0  0  0  0  0  0  0  0  0
   -2.2018    0.3888   -0.3104 C   0  0  0  0  0  0  0  0  0  0  0  0
   -1.2029    1.4752   -0.2030 N   0  0  0  0  0  0  0  0  0  0  0  0
    3.1265   -1.5017    0.2082 H   0  0  0  0  0  0  0  0  0  0  0  0
    3.3974    0.9450   -0.0987 H   0  0  0  0  0  0  0  0  0  0  0  0
    1.3966    2.4144   -0.3105 H   0  0  0  0  0  0  0  0  0  0  0  0
    0.8512   -2.5075    0.3309 H   0  0  0  0  0  0  0  0  0  0  0  0
   -1.8661   -1.7686   -0.4866 H   0  0  0  0  0  0  0  0  0  0  0  0
   -1.8305   -1.1481    1.1948 H   0  0  0  0  0  0  0  0  0  0  0  0
   -2.5058    0.3068   -1.3619 H   0  0  0  0  0  0  0  0  0  0  0  0
   -3.1004    0.6272    0.2689 H   0  0  0  0  0  0  0  0  0  0  0  0
   -1.3012    1.9944    0.6690 H   0  0  0  0  0  0  0  0  0  0  0  0
  1  2  2  0
  2  3  1  0
  3  4  2  0
  4  5  1  0
  5  6  2  0
  5  7  1  0
  7  8  1  0
  8  9  1  0
  6  1  1  0
  9  4  1  0
  1 10  1  0
  2 11  1  0
  3 12  1  0
  6 13  1  0
  7 14  1  0
  7 15  1  0
  8 16  1  0
  8 17  1  0
  9 18  1  0
M  END
