
     RDKit          3D

 23 24  0  0  0  0  0  0  0  0999 V2000
    3.8941    1.0902   -0.6188 O   0  0  0  0  0  0  0  0  0  0  0  0
    2.7395    0.2759   -0.4368 C   0  0  0  0  0  0  0  0  0  0  0  0
    1.8177    0.9154    0.5970 C   0  0  0  0  0  0  0  0  0  0  0  0
    0.5828    0.1088    0.8368 C   0  0  0  0  0  0  0  0  0  0  0  0
    0.3784   -0.7917    1.8642 C   0  0  0  0  0  0  0  0  0  0  0  0
   -0.8765   -1.3211    1.7298 N   0  0  0  0  0  0  0  0  0  0  0  0
   -1.5029   -0.7880    0.6280 C   0  0  0  0  0  0  0  0  0  0  0  0
   -2.7792   -1.0351    0.1081 C   0  0  0  0  0  0  0  0  0  0  0  0
   -3.1578   -0.3343   -1.0406 C   0  0  0  0  0  0  0  0  0  0  0  0
   -2.2934    0.5769   -1.6423 C   0  0  0  0  0  0  0  0  0  0  0  0
   -1.0208    0.8118   -1.1090 C   0  0  0  0  0  0  0  0  0  0  0  0
   -0.6132    0.1170    0.0486 C   0  0  0  0  0  0  0  0  0  0  0  0
    4.4503    0.6443   -1.2806 H   0  0  0  0  0  0  0  0  0  0  0  0
    3.0651   -0.7172   -0.1085 H   0  0  0  0  0  0  0  0  0  0  0  0
    2.2353    0.1726   -1.4036 H   0  0  0  0  0  0  0  0  0  0  0  0
    1.5481    1.9284    0.2724 H   0  0  0  0  0  0  0  0  0  0  0  0
    2.3668    1.0520    1.5376 H   0  0  0  0  0  0  0  0  0  0  0  0
    1.0197   -1.0970    2.6805 H   0  0  0  0  0  0  0  0  0  0  0  0
   -1.2903   -2.0045    2.3482 H   0  0  0  0  0  0  0  0  0  0  0  0
   -3.4559   -1.7425    0.5758 H   0  0  0  0  0  0  0  0  0  0  0  0
   -4.1433   -0.5025   -1.4688 H   0  0  0  0  0  0  0  0  0  0  0  0
   -2.6084    1.1136   -2.5337 H   0  0  0  0  0  0  0  0  0  0  0  0
   -0.3563    1.5269   -1.5846 H   0  0  0  0  0  0  0  0  0  0  0  0
  1  2  1  0
  2  3  1  0
  3  4  1  0
  4  5  2  0
  5  6  1  0
  6  7  1  0
  7  8  2  0
  8  9  1  0
  9 10  2  0
 10 11  1  0
 11 12  2  0
 12  4  1  0
 12  7  1  0
  1 13  1  0
  2 14  1  0
  2 15  1  0
  3 16  1  0
  3 17  1  0
  5 18  1  0
  6 19  1  0
  8 20  1  0
  9 21  1  0
 10 22  1  0
 11 23  1  0
M  END
$$$$

     RDKit          3D

 23 24  0  0  0  0  0  0  0  0999 V2000
   -3.9832    0.9848    0.3981 O   0  0  0  0  0  0  0  0  0  0  0  0
   -2.8105    0.1805    0.3015 C   0  0  0  0  0  0  0  0  0  0  0  0
   -1.8431    0.7687   -0.7225 C   0  0  0  0  0  0  0  0  0  0  0  0
   -0.5838   -0.0244   -0.8444 C   0  0  0  0  0  0  0  0  0  0  0  0
   -0.3208   -1.0019   -1.7843 C   0  0  0  0  0  0  0  0  0  0  0  0
    0.9375   -1.4900   -1.5580 N   0  0  0  0  0  0  0  0  0  0  0  0
    1.5096   -0.8514   -0.4831 C   0  0  0  0  0  0  0  0  0  0  0  0
    2.7696   -1.0247    0.1024 C   0  0  0  0  0  0  0  0  0  0  0  0
    3.0888   -0.2236    1.2024 C   0  0  0  0  0  0  0  0  0  0  0  0
    2.1829    0.7126    1.6943 C   0  0  0  0  0  0  0  0  0  0  0  0
    0.9273    0.8729    1.0965 C   0  0  0  0  0  0  0  0  0  0  0  0
    0.5795    0.0768   -0.0145 C   0  0  0  0  0  0  0  0  0  0  0  0
   -3.7123    1.8525    0.7436 H   0  0  0  0  0  0  0  0  0  0  0  0
   -2.3554    0.1153    1.2957 H   0  0  0  0  0  0  0  0  0  0  0  0
   -3.1190   -0.8289    0.0096 H   0  0  0  0  0  0  0  0  0  0  0  0
   -1.6072    1.8057   -0.4521 H   0  0  0  0  0  0  0  0  0  0  0  0
   -2.3439    0.8341   -1.6970 H   0  0  0  0  0  0  0  0  0  0  0  0
   -0.9237   -1.3905   -2.5945 H   0  0  0  0  0  0  0  0  0  0  0  0
    1.3876   -2.2154   -2.0986 H   0  0  0  0  0  0  0  0  0  0  0  0
    3.4779   -1.7529   -0.2789 H   0  0  0  0  0  0  0  0  0  0  0  0
    4.0598   -0.3336    1.6799 H   0  0  0  0  0  0  0  0  0  0  0  0
    2.4517    1.3262    2.5506 H   0  0  0  0  0  0  0  0  0  0  0  0
    0.2308    1.6071    1.4893 H   0  0  0  0  0  0  0  0  0  0  0  0
  1  2  1  0
  2  3  1  0
  3  4  1  0
  4  5  2  0
  5  6  1  0
  6  7  1  0
  7  8  2  0
  8  9  1  0
  9 10  2  0
 10 11  1  0
 11 12  2  0
 12  4  1  0
 12  7  1  0
  1 13  1  0
  2 14  1  0
  2 15  1  0
  3 16  1  0
  3 17  1  0
  5 18  1  0
  6 19  1  0
  8 20  1  0
  9 21  1  0
 10 22  1  0
 11 23  1  0
M  END
$$$$

     RDKit          3D

 23 24  0  0  0  0  0  0  0  0999 V2000
   -3.2897   -1.0341   -0.5843 O   0  0  0  0  0  0  0  0  0  0  0  0
   -2.7198    0.2228   -0.9420 C   0  0  0  0  0  0  0  0  0  0  0  0
   -2.0396    0.8843    0.2568 C   0  0  0  0  0  0  0  0  0  0  0  0
   -0.7882    0.1732    0.6783 C   0  0  0  0  0  0  0  0  0  0  0  0
   -0.6600   -0.6926    1.7475 C   0  0  0  0  0  0  0  0  0  0  0  0
    0.6361   -1.1287    1.7966 N   0  0  0  0  0  0  0  0  0  0  0  0
    1.3655   -0.5680    0.7748 C   0  0  0  0  0  0  0  0  0  0  0  0
    2.7151   -0.7277    0.4380 C   0  0  0  0  0  0  0  0  0  0  0  0
    3.1954   -0.0193   -0.6671 C   0  0  0  0  0  0  0  0  0  0  0  0
    2.3581    0.8153   -1.4028 C   0  0  0  0  0  0  0  0  0  0  0  0
    1.0112    0.9637   -1.0517 C   0  0  0  0  0  0  0  0  0  0  0  0
    0.5002    0.2588    0.0578 C   0  0  0  0  0  0  0  0  0  0  0  0
   -2.5548   -1.5888   -0.2647 H   0  0  0  0  0  0  0  0  0  0  0  0
   -3.5364    0.8583   -1.2987 H   0  0  0  0  0  0  0  0  0  0  0  0
   -2.0264    0.0648   -1.7746 H   0  0  0  0  0  0  0  0  0  0  0  0
   -1.7908    1.9221    0.0055 H   0  0  0  0  0  0  0  0  0  0  0  0
   -2.7374    0.9128    1.1028 H   0  0  0  0  0  0  0  0  0  0  0  0
   -1.3823   -1.0301    2.4796 H   0  0  0  0  0  0  0  0  0  0  0  0
    1.0113   -1.7680    2.4835 H   0  0  0  0  0  0  0  0  0  0  0  0
    3.3709   -1.3754    1.0103 H   0  0  0  0  0  0  0  0  0  0  0  0
    4.2394   -0.1212   -0.9548 H   0  0  0  0  0  0  0  0  0  0  0  0
    2.7525    1.3586   -2.2580 H   0  0  0  0  0  0  0  0  0  0  0  0
    0.3698    1.6192   -1.6328 H   0  0  0  0  0  0  0  0  0  0  0  0
  1  2  1  0
  2  3  1  0
  3  4  1  0
  4  5  2  0
  5  6  1  0
  6  7  1  0
  7  8  2  0
  8  9  1  0
  9 10  2  0
 10 11  1  0
 11 12  2  0
 12  4  1  0
 12  7  1  0
  1 13  1  0
  2 14  1  0
  2 15  1  0
  3 16  1  0
  3 17  1  0
  5 18  1  0
  6 19  1  0
  8 20  1  0
  9 21  1  0
 10 22  1  0
 11 23  1  0
M  END
$$$$

     RDKit          3D

 23 24  0  0  0  0  0  0  0  0999 V2000
   -3.8381    1.4407    0.2891 O   0  0  0  0  0  0  0  0  0  0  0  0
   -2.6261    0.9250   -0.2556 C   0  0  0  0  0  0  0  0  0  0  0  0
   -1.9671   -0.0386    0.7282 C   0  0  0  0  0  0  0  0  0  0  0  0
   -0.7118   -0.6414    0.1892 C   0  0  0  0  0  0  0  0  0  0  0  0
   -0.5843   -1.8871   -0.3943 C   0  0  0  0  0  0  0  0  0  0  0  0
    0.7249   -2.0618   -0.7543 N   0  0  0  0  0  0  0  0  0  0  0  0
    1.4633   -0.9513   -0.4196 C   0  0  0  0  0  0  0  0  0  0  0  0
    2.8266   -0.6872   -0.5979 C   0  0  0  0  0  0  0  0  0  0  0  0
    3.3114    0.5458   -0.1522 C   0  0  0  0  0  0  0  0  0  0  0  0
    2.4649    1.4748    0.4476 C   0  0  0  0  0  0  0  0  0  0  0  0
    1.1043    1.1940    0.6182 C   0  0  0  0  0  0  0  0  0  0  0  0
    0.5893   -0.0424    0.1770 C   0  0  0  0  0  0  0  0  0  0  0  0
   -4.4518    0.6929    0.3894 H   0  0  0  0  0  0  0  0  0  0  0  0
   -2.8576    0.4319   -1.2061 H   0  0  0  0  0  0  0  0  0  0  0  0
   -1.9691    1.7737   -0.4722 H   0  0  0  0  0  0  0  0  0  0  0  0
   -2.6792   -0.8313    0.9918 H   0  0  0  0  0  0  0  0  0  0  0  0
   -1.7599    0.4848    1.6701 H   0  0  0  0  0  0  0  0  0  0  0  0
   -1.3131   -2.6644   -0.5821 H   0  0  0  0  0  0  0  0  0  0  0  0
    1.1024   -2.8855   -1.2014 H   0  0  0  0  0  0  0  0  0  0  0  0
    3.4891   -1.4089   -1.0643 H   0  0  0  0  0  0  0  0  0  0  0  0
    4.3658    0.7821   -0.2758 H   0  0  0  0  0  0  0  0  0  0  0  0
    2.8620    2.4280    0.7876 H   0  0  0  0  0  0  0  0  0  0  0  0
    0.4540    1.9263    1.0877 H   0  0  0  0  0  0  0  0  0  0  0  0
  1  2  1  0
  2  3  1  0
  3  4  1  0
  4  5  2  0
  5  6  1  0
  6  7  1  0
  7  8  2  0
  8  9  1  0
  9 10  2  0
 10 11  1  0
 11 12  2  0
 12  4  1  0
 12  7  1  0
  1 13  1  0
  2 14  1  0
  2 15  1  0
  3 16  1  0
  3 17  1  0
  5 18  1  0
  6 19  1  0
  8 20  1  0
  9 21  1  0
 10 22  1  0
 11 23  1  0
M  END
$$$$

     RDKit          3D

 23 24  0  0  0  0  0  0  0  0999 V2000
   -2.5007   -0.4870    1.6208 O   0  0  0  0  0  0  0  0  0  0  0  0
   -2.8213    0.6169    0.7781 C   0  0  0  0  0  0  0  0  0  0  0  0
   -2.1268    0.5045   -0.5792 C   0  0  0  0  0  0  0  0  0  0  0  0
   -0.6495    0.7477   -0.4938 C   0  0  0  0  0  0  0  0  0  0  0  0
   -0.0145    1.9710   -0.5907 C   0  0  0  0  0  0  0  0  0  0  0  0
    1.3329    1.7689   -0.4586 N   0  0  0  0  0  0  0  0  0  0  0  0
    1.5978    0.4327   -0.2724 C   0  0  0  0  0  0  0  0  0  0  0  0
    2.8188   -0.2275   -0.0887 C   0  0  0  0  0  0  0  0  0  0  0  0
    2.7867   -1.6153    0.0761 C   0  0  0  0  0  0  0  0  0  0  0  0
    1.5813   -2.3121    0.0563 C   0  0  0  0  0  0  0  0  0  0  0  0
    0.3699   -1.6361   -0.1294 C   0  0  0  0  0  0  0  0  0  0  0  0
    0.3737   -0.2357   -0.2967 C   0  0  0  0  0  0  0  0  0  0  0  0
   -1.5366   -0.4579    1.7640 H   0  0  0  0  0  0  0  0  0  0  0  0
   -3.9066    0.6088    0.6367 H   0  0  0  0  0  0  0  0  0  0  0  0
   -2.5552    1.5424    1.2999 H   0  0  0  0  0  0  0  0  0  0  0  0
   -2.3066   -0.4890   -1.0068 H   0  0  0  0  0  0  0  0  0  0  0  0
   -2.5658    1.2373   -1.2673 H   0  0  0  0  0  0  0  0  0  0  0  0
   -0.4072    2.9675   -0.7442 H   0  0  0  0  0  0  0  0  0  0  0  0
    2.0376    2.4923   -0.4921 H   0  0  0  0  0  0  0  0  0  0  0  0
    3.7601    0.3118   -0.0746 H   0  0  0  0  0  0  0  0  0  0  0  0
    3.7180   -2.1583    0.2205 H   0  0  0  0  0  0  0  0  0  0  0  0
    1.5781   -3.3917    0.1851 H   0  0  0  0  0  0  0  0  0  0  0  0
   -0.5642   -2.1911   -0.1431 H   0  0  0  0  0  0  0  0  0  0  0  0
  1  2  1  0
  2  3  1  0
  3  4  1  0
  4  5  2  0
  5  6  1  0
  6  7  1  0
  7  8  2  0
  8  9  1  0
  9 10  2  0
 10 11  1  0
 11 12  2  0
 12  4  1  0
 12  7  1  0
  1 13  1  0
  2 14  1  0
  2 15  1  0
  3 16  1  0
  3 17  1  0
  5 18  1  0
  6 19  1  0
  8 20  1  0
  9 21  1  0
 10 22  1  0
 11 23  1  0
M  END
$$$$

     RDKit          3D

 23 24  0  0  0  0  0  0  0  0999 V2000
    3.9121    0.9726   -0.6965 O   0  0  0  0  0  0  0  0  0  0  0  0
    2.7235    0.1991   -0.5611 C   0  0  0  0  0  0  0  0  0  0  0  0
    1.8975    0.7271    0.6078 C   0  0  0  0  0  0  0  0  0  0  0  0
    0.6323   -0.0431    0.8062 C   0  0  0  0  0  0  0  0  0  0  0  0
    0.4314   -1.0719    1.7060 C   0  0  0  0  0  0  0  0  0  0  0  0
   -0.8577   -1.5127    1.5754 N   0  0  0  0  0  0  0  0  0  0  0  0
   -1.5103   -0.7947    0.6011 C   0  0  0  0  0  0  0  0  0  0  0  0
   -2.8250   -0.8997    0.1311 C   0  0  0  0  0  0  0  0  0  0  0  0
   -3.2233   -0.0215   -0.8809 C   0  0  0  0  0  0  0  0  0  0  0  0
   -2.3409    0.9230   -1.3992 C   0  0  0  0  0  0  0  0  0  0  0  0
   -1.0299    1.0141   -0.9174 C   0  0  0  0  0  0  0  0  0  0  0  0
   -0.6018    0.1392    0.1024 C   0  0  0  0  0  0  0  0  0  0  0  0
    4.4049    0.6002   -1.4478 H   0  0  0  0  0  0  0  0  0  0  0  0
    3.0078   -0.8461   -0.3979 H   0  0  0  0  0  0  0  0  0  0  0  0
    2.1628    0.2626   -1.4999 H   0  0  0  0  0  0  0  0  0  0  0  0
    1.6703    1.7886    0.4476 H   0  0  0  0  0  0  0  0  0  0  0  0
    2.5034    0.6981    1.5226 H   0  0  0  0  0  0  0  0  0  0  0  0
    1.0968   -1.5241    2.4296 H   0  0  0  0  0  0  0  0  0  0  0  0
   -1.2768   -2.2572    2.1147 H   0  0  0  0  0  0  0  0  0  0  0  0
   -3.5157   -1.6328    0.5343 H   0  0  0  0  0  0  0  0  0  0  0  0
   -4.2386   -0.0763   -1.2672 H   0  0  0  0  0  0  0  0  0  0  0  0
   -2.6716    1.5985   -2.1842 H   0  0  0  0  0  0  0  0  0  0  0  0
   -0.3514    1.7567   -1.3267 H   0  0  0  0  0  0  0  0  0  0  0  0
  1  2  1  0
  2  3  1  0
  3  4  1  0
  4  5  2  0
  5  6  1  0
  6  7  1  0
  7  8  2  0
  8  9  1  0
  9 10  2  0
 10 11  1  0
 11 12  2  0
 12  4  1  0
 12  7  1  0
  1 13  1  0
  2 14  1  0
  2 15  1  0
  3 16  1  0
  3 17  1  0
  5 18  1  0
  6 19  1  0
  8 20  1  0
  9 21  1  0
 10 22  1  0
 11 23  1  0
M  END
$$$$

     RDKit          3D

 23 24  0  0  0  0  0  0  0  0999 V2000
   -2.5973    1.2203    0.9393 O   0  0  0  0  0  0  0  0  0  0  0  0
   -2.9858    0.1052    0.1410 C   0  0  0  0  0  0  0  0  0  0  0  0
   -1.9873   -1.0459    0.2647 C   0  0  0  0  0  0  0  0  0  0  0  0
   -0.6863   -0.7581   -0.4233 C   0  0  0  0  0  0  0  0  0  0  0  0
   -0.3853   -1.0172   -1.7467 C   0  0  0  0  0  0  0  0  0  0  0  0
    0.8984   -0.6062   -1.9852 N   0  0  0  0  0  0  0  0  0  0  0  0
    1.4489   -0.0766   -0.8421 C   0  0  0  0  0  0  0  0  0  0  0  0
    2.7207    0.4657   -0.6213 C   0  0  0  0  0  0  0  0  0  0  0  0
    3.0114    0.9340    0.6633 C   0  0  0  0  0  0  0  0  0  0  0  0
    2.0670    0.8605    1.6841 C   0  0  0  0  0  0  0  0  0  0  0  0
    0.8007    0.3143    1.4459 C   0  0  0  0  0  0  0  0  0  0  0  0
    0.4808   -0.1642    0.1583 C   0  0  0  0  0  0  0  0  0  0  0  0
   -1.7352    1.5214    0.5973 H   0  0  0  0  0  0  0  0  0  0  0  0
   -3.9673   -0.2204    0.4995 H   0  0  0  0  0  0  0  0  0  0  0  0
   -3.0986    0.4410   -0.8953 H   0  0  0  0  0  0  0  0  0  0  0  0
   -2.4268   -1.9494   -0.1754 H   0  0  0  0  0  0  0  0  0  0  0  0
   -1.7981   -1.2608    1.3231 H   0  0  0  0  0  0  0  0  0  0  0  0
   -0.9753   -1.4607   -2.5379 H   0  0  0  0  0  0  0  0  0  0  0  0
    1.3792   -0.6784   -2.8711 H   0  0  0  0  0  0  0  0  0  0  0  0
    3.4597    0.5230   -1.4136 H   0  0  0  0  0  0  0  0  0  0  0  0
    3.9906    1.3608    0.8680 H   0  0  0  0  0  0  0  0  0  0  0  0
    2.3134    1.2293    2.6768 H   0  0  0  0  0  0  0  0  0  0  0  0
    0.0724    0.2623    2.2507 H   0  0  0  0  0  0  0  0  0  0  0  0
  1  2  1  0
  2  3  1  0
  3  4  1  0
  4  5  2  0
  5  6  1  0
  6  7  1  0
  7  8  2  0
  8  9  1  0
  9 10  2  0
 10 11  1  0
 11 12  2  0
 12  4  1  0
 12  7  1  0
  1 13  1  0
  2 14  1  0
  2 15  1  0
  3 16  1  0
  3 17  1  0
  5 18  1  0
  6 19  1  0
  8 20  1  0
  9 21  1  0
 10 22  1  0
 11 23  1  0
M  END
$$$$

     RDKit          3D

 23 24  0  0  0  0  0  0  0  0999 V2000
    2.6206   -1.3263   -0.7005 O   0  0  0  0  0  0  0  0  0  0  0  0
    2.9271   -0.4696    0.3967 C   0  0  0  0  0  0  0  0  0  0  0  0
    1.7562   -0.3731    1.3748 C   0  0  0  0  0  0  0  0  0  0  0  0
    0.6079    0.4190    0.8245 C   0  0  0  0  0  0  0  0  0  0  0  0
    0.4335    1.7859    0.9255 C   0  0  0  0  0  0  0  0  0  0  0  0
   -0.7334    2.1196    0.2923 N   0  0  0  0  0  0  0  0  0  0  0  0
   -1.3305    0.9960   -0.2284 C   0  0  0  0  0  0  0  0  0  0  0  0
   -2.5212    0.8609   -0.9525 C   0  0  0  0  0  0  0  0  0  0  0  0
   -2.8901   -0.4245   -1.3593 C   0  0  0  0  0  0  0  0  0  0  0  0
   -2.0991   -1.5286   -1.0518 C   0  0  0  0  0  0  0  0  0  0  0  0
   -0.9123   -1.3755   -0.3262 C   0  0  0  0  0  0  0  0  0  0  0  0
   -0.5159   -0.0891    0.0952 C   0  0  0  0  0  0  0  0  0  0  0  0
    1.8629   -0.9249   -1.1648 H   0  0  0  0  0  0  0  0  0  0  0  0
    3.2150    0.5110    0.0031 H   0  0  0  0  0  0  0  0  0  0  0  0
    3.7962   -0.8979    0.9059 H   0  0  0  0  0  0  0  0  0  0  0  0
    2.1017    0.1031    2.3005 H   0  0  0  0  0  0  0  0  0  0  0  0
    1.4092   -1.3792    1.6386 H   0  0  0  0  0  0  0  0  0  0  0  0
    1.0399    2.5487    1.3958 H   0  0  0  0  0  0  0  0  0  0  0  0
   -1.1085    3.0546    0.2147 H   0  0  0  0  0  0  0  0  0  0  0  0
   -3.1410    1.7186   -1.1924 H   0  0  0  0  0  0  0  0  0  0  0  0
   -3.8097   -0.5637   -1.9232 H   0  0  0  0  0  0  0  0  0  0  0  0
   -2.4045   -2.5203   -1.3765 H   0  0  0  0  0  0  0  0  0  0  0  0
   -0.3036   -2.2447   -0.0922 H   0  0  0  0  0  0  0  0  0  0  0  0
  1  2  1  0
  2  3  1  0
  3  4  1  0
  4  5  2  0
  5  6  1  0
  6  7  1  0
  7  8  2  0
  8  9  1  0
  9 10  2  0
 10 11  1  0
 11 12  2  0
 12  4  1  0
 12  7  1  0
  1 13  1  0
  2 14  1  0
  2 15  1  0
  3 16  1  0
  3 17  1  0
  5 18  1  0
  6 19  1  0
  8 20  1  0
  9 21  1  0
 10 22  1  0
 11 23  1  0
M  END
$$$$
