
     RDKit          3D

 23 24  0  0  0  0  0  0  0  0999 V2000
   -2.4906    1.4542   -1.1816 O   0  0  0  0  0  0  0  0  0  0  0  0
   -2.8547    0.2914   -0.4416 C   0  0  0  0  0  0  0  0  0  0  0  0
   -1.9623   -0.8908   -0.8189 C   0  0  0  0  0  0  0  0  0  0  0  0
   -0.6575   -0.9008   -0.0779 C   0  0  0  0  0  0  0  0  0  0  0  0
   -0.3546   -1.6664    1.0326 C   0  0  0  0  0  0  0  0  0  0  0  0
    0.9360   -1.3988    1.4017 N   0  0  0  0  0  0  0  0  0  0  0  0
    1.4915   -0.4695    0.5547 C   0  0  0  0  0  0  0  0  0  0  0  0
    2.7732    0.0946    0.5493 C   0  0  0  0  0  0  0  0  0  0  0  0
    3.0654    1.0304   -0.4474 C   0  0  0  0  0  0  0  0  0  0  0  0
    2.1122    1.3861   -1.3981 C   0  0  0  0  0  0  0  0  0  0  0  0
    0.8364    0.8111   -1.3777 C   0  0  0  0  0  0  0  0  0  0  0  0
    0.5149   -0.1365   -0.3844 C   0  0  0  0  0  0  0  0  0  0  0  0
   -2.9492    2.2062   -0.7701 H   0  0  0  0  0  0  0  0  0  0  0  0
   -3.8948    0.0634   -0.6959 H   0  0  0  0  0  0  0  0  0  0  0  0
   -2.7980    0.5179    0.6286 H   0  0  0  0  0  0  0  0  0  0  0  0
   -2.4957   -1.8209   -0.5854 H   0  0  0  0  0  0  0  0  0  0  0  0
   -1.7659   -0.8917   -1.8977 H   0  0  0  0  0  0  0  0  0  0  0  0
   -0.9468   -2.3819    1.5871 H   0  0  0  0  0  0  0  0  0  0  0  0
    1.4197   -1.8221    2.1810 H   0  0  0  0  0  0  0  0  0  0  0  0
    3.5177   -0.1799    1.2890 H   0  0  0  0  0  0  0  0  0  0  0  0
    4.0514    1.4877   -0.4793 H   0  0  0  0  0  0  0  0  0  0  0  0
    2.3562    2.1177   -2.1639 H   0  0  0  0  0  0  0  0  0  0  0  0
    0.0954    1.0986   -2.1186 H   0  0  0  0  0  0  0  0  0  0  0  0
  1  2  1  0
  2  3  1  0
  3  4  1  0
  4  5  2  0
  5  6  1  0
  6  7  1  0
  7  8  2  0
  8  9  1  0
  9 10  2  0
 10 11  1  0
 11 12  2  0
 12  4  1  0
 12  7  1  0
  1 13  1  0
  2 14  1  0
  2 15  1  0
  3 16  1  0
  3 17  1  0
  5 18  1  0
  6 19  1  0
  8 20  1  0
  9 21  1  0
 10 22  1  0
 11 23  1  0
M  END
