
     RDKit          3D

 30 32  0  0  0  0  0  0  0  0999 V2000
    5.6790   -0.4694   -1.2571 C   0  0  0  0  0  0  0  0  0  0  0  0
    4.4446    0.0803   -1.6985 O   0  0  0  0  0  0  0  0  0  0  0  0
    3.3411   -0.1720   -0.9268 C   0  0  0  0  0  0  0  0  0  0  0  0
    3.3223   -0.9168    0.2527 C   0  0  0  0  0  0  0  0  0  0  0  0
    2.1330   -1.1148    0.9684 C   0  0  0  0  0  0  0  0  0  0  0  0
    0.9647   -0.5404    0.4581 C   0  0  0  0  0  0  0  0  0  0  0  0
   -0.3244   -0.5654    0.9374 N   0  0  0  0  0  0  0  0  0  0  0  0
   -1.1753    0.1367    0.1113 C   0  0  0  0  0  0  0  0  0  0  0  0
   -0.3928    0.6333   -0.9176 C   0  0  0  0  0  0  0  0  0  0  0  0
    0.9486    0.2095   -0.7135 C   0  0  0  0  0  0  0  0  0  0  0  0
    2.1553    0.3945   -1.4148 C   0  0  0  0  0  0  0  0  0  0  0  0
   -2.6059    0.2880    0.3808 C   0  0  0  0  0  0  0  0  0  0  0  0
   -3.2598    1.4879    0.0707 C   0  0  0  0  0  0  0  0  0  0  0  0
   -4.6245    1.6447    0.3275 C   0  0  0  0  0  0  0  0  0  0  0  0
   -5.3521    0.6007    0.8937 C   0  0  0  0  0  0  0  0  0  0  0  0
   -4.7169   -0.6003    1.2012 C   0  0  0  0  0  0  0  0  0  0  0  0
   -3.3514   -0.7563    0.9457 C   0  0  0  0  0  0  0  0  0  0  0  0
    5.6390   -1.5635   -1.2352 H   0  0  0  0  0  0  0  0  0  0  0  0
    6.4504   -0.1795   -1.9771 H   0  0  0  0  0  0  0  0  0  0  0  0
    5.9657   -0.0635   -0.2814 H   0  0  0  0  0  0  0  0  0  0  0  0
    4.2258   -1.3654    0.6532 H   0  0  0  0  0  0  0  0  0  0  0  0
    2.1273   -1.6951    1.8853 H   0  0  0  0  0  0  0  0  0  0  0  0
   -0.6039   -1.0196    1.7943 H   0  0  0  0  0  0  0  0  0  0  0  0
   -0.7496    1.2340   -1.7442 H   0  0  0  0  0  0  0  0  0  0  0  0
    2.1699    0.9752   -2.3324 H   0  0  0  0  0  0  0  0  0  0  0  0
   -2.7084    2.3182   -0.3642 H   0  0  0  0  0  0  0  0  0  0  0  0
   -5.1166    2.5829    0.0849 H   0  0  0  0  0  0  0  0  0  0  0  0
   -6.4140    0.7218    1.0909 H   0  0  0  0  0  0  0  0  0  0  0  0
   -5.2852   -1.4197    1.6336 H   0  0  0  0  0  0  0  0  0  0  0  0
   -2.8860   -1.7117    1.1732 H   0  0  0  0  0  0  0  0  0  0  0  0
  1  2  1  0
  2  3  1  0
  3  4  2  0
  4  5  1  0
  5  6  2  0
  6  7  1  0
  7  8  1  0
  8  9  2  0
  9 10  1  0
 10 11  2  0
  8 12  1  0
 12 13  2  0
 13 14  1  0
 14 15  2  0
 15 16  1  0
 16 17  2  0
 11  3  1  0
 10  6  1  0
 17 12  1  0
  1 18  1  0
  1 19  1  0
  1 20  1  0
  4 21  1  0
  5 22  1  0
  7 23  1  0
  9 24  1  0
 11 25  1  0
 13 26  1  0
 14 27  1  0
 15 28  1  0
 16 29  1  0
 17 30  1  0
M  END
>  <SASA>  (1) 
453.55560678882654

$$$$

     RDKit          3D

 30 32  0  0  0  0  0  0  0  0999 V2000
    5.8196    0.3825   -0.0749 C   0  0  0  0  0  0  0  0  0  0  0  0
    4.6169    1.1152   -0.2683 O   0  0  0  0  0  0  0  0  0  0  0  0
    3.4405    0.4378   -0.0838 C   0  0  0  0  0  0  0  0  0  0  0  0
    3.3189   -0.9053    0.2737 C   0  0  0  0  0  0  0  0  0  0  0  0
    2.0611   -1.5028    0.4371 C   0  0  0  0  0  0  0  0  0  0  0  0
    0.9313   -0.7052    0.2303 C   0  0  0  0  0  0  0  0  0  0  0  0
   -0.4064   -1.0140    0.3160 N   0  0  0  0  0  0  0  0  0  0  0  0
   -1.1891    0.0842    0.0318 C   0  0  0  0  0  0  0  0  0  0  0  0
   -0.3143    1.1182   -0.2566 C   0  0  0  0  0  0  0  0  0  0  0  0
    1.0169    0.6361   -0.1288 C   0  0  0  0  0  0  0  0  0  0  0  0
    2.2909    1.2140   -0.2869 C   0  0  0  0  0  0  0  0  0  0  0  0
   -2.6521    0.0449    0.0355 C   0  0  0  0  0  0  0  0  0  0  0  0
   -3.3541   -0.7283    0.9710 C   0  0  0  0  0  0  0  0  0  0  0  0
   -4.7515   -0.7604    0.9641 C   0  0  0  0  0  0  0  0  0  0  0  0
   -5.4625   -0.0194    0.0229 C   0  0  0  0  0  0  0  0  0  0  0  0
   -4.7778    0.7570   -0.9091 C   0  0  0  0  0  0  0  0  0  0  0  0
   -3.3809    0.7903   -0.9009 C   0  0  0  0  0  0  0  0  0  0  0  0
    6.6579    1.0618   -0.2577 H   0  0  0  0  0  0  0  0  0  0  0  0
    5.8986   -0.4428   -0.7902 H   0  0  0  0  0  0  0  0  0  0  0  0
    5.9018    0.0230    0.9561 H   0  0  0  0  0  0  0  0  0  0  0  0
    4.1921   -1.5290    0.4361 H   0  0  0  0  0  0  0  0  0  0  0  0
    1.9754   -2.5483    0.7148 H   0  0  0  0  0  0  0  0  0  0  0  0
   -0.7654   -1.9314    0.5357 H   0  0  0  0  0  0  0  0  0  0  0  0
   -0.6008    2.1273   -0.5229 H   0  0  0  0  0  0  0  0  0  0  0  0
    2.3854    2.2592   -0.5662 H   0  0  0  0  0  0  0  0  0  0  0  0
   -2.8249   -1.2969    1.7310 H   0  0  0  0  0  0  0  0  0  0  0  0
   -5.2842   -1.3588    1.6986 H   0  0  0  0  0  0  0  0  0  0  0  0
   -6.5491   -0.0431    0.0182 H   0  0  0  0  0  0  0  0  0  0  0  0
   -5.3289    1.3377   -1.6442 H   0  0  0  0  0  0  0  0  0  0  0  0
   -2.8655    1.3964   -1.6423 H   0  0  0  0  0  0  0  0  0  0  0  0
  1  2  1  0
  2  3  1  0
  3  4  2  0
  4  5  1  0
  5  6  2  0
  6  7  1  0
  7  8  1  0
  8  9  2  0
  9 10  1  0
 10 11  2  0
  8 12  1  0
 12 13  2  0
 13 14  1  0
 14 15  2  0
 15 16  1  0
 16 17  2  0
 11  3  1  0
 10  6  1  0
 17 12  1  0
  1 18  1  0
  1 19  1  0
  1 20  1  0
  4 21  1  0
  5 22  1  0
  7 23  1  0
  9 24  1  0
 11 25  1  0
 13 26  1  0
 14 27  1  0
 15 28  1  0
 16 29  1  0
 17 30  1  0
M  END
>  <SASA>  (2) 
453.55560678882654

$$$$

     RDKit          3D

 30 32  0  0  0  0  0  0  0  0999 V2000
   -5.3887    0.7940    0.1159 C   0  0  0  0  0  0  0  0  0  0  0  0
   -4.8830   -0.5245   -0.0496 O   0  0  0  0  0  0  0  0  0  0  0  0
   -3.5204   -0.6655   -0.0724 C   0  0  0  0  0  0  0  0  0  0  0  0
   -3.0788   -1.9808   -0.2327 C   0  0  0  0  0  0  0  0  0  0  0  0
   -1.7172   -2.3000   -0.2767 C   0  0  0  0  0  0  0  0  0  0  0  0
   -0.8087   -1.2455   -0.1522 C   0  0  0  0  0  0  0  0  0  0  0  0
    0.5668   -1.2509   -0.1592 N   0  0  0  0  0  0  0  0  0  0  0  0
    1.0693    0.0225   -0.0028 C   0  0  0  0  0  0  0  0  0  0  0  0
   -0.0277    0.8622    0.0918 C   0  0  0  0  0  0  0  0  0  0  0  0
   -1.2107    0.0772    0.0063 C   0  0  0  0  0  0  0  0  0  0  0  0
   -2.5900    0.3738    0.0478 C   0  0  0  0  0  0  0  0  0  0  0  0
    2.5024    0.3185    0.0170 C   0  0  0  0  0  0  0  0  0  0  0  0
    3.4151   -0.5585    0.6198 C   0  0  0  0  0  0  0  0  0  0  0  0
    4.7822   -0.2673    0.6313 C   0  0  0  0  0  0  0  0  0  0  0  0
    5.2517    0.9040    0.0414 C   0  0  0  0  0  0  0  0  0  0  0  0
    4.3555    1.7866   -0.5567 C   0  0  0  0  0  0  0  0  0  0  0  0
    2.9886    1.4961   -0.5667 C   0  0  0  0  0  0  0  0  0  0  0  0
   -6.4814    0.7352    0.1155 H   0  0  0  0  0  0  0  0  0  0  0  0
   -5.0902    1.4390   -0.7171 H   0  0  0  0  0  0  0  0  0  0  0  0
   -5.0789    1.2183    1.0767 H   0  0  0  0  0  0  0  0  0  0  0  0
   -3.8123   -2.7791   -0.3259 H   0  0  0  0  0  0  0  0  0  0  0  0
   -1.3900   -3.3265   -0.4020 H   0  0  0  0  0  0  0  0  0  0  0  0
    1.1309   -2.0784   -0.2853 H   0  0  0  0  0  0  0  0  0  0  0  0
    0.0145    1.9357    0.2217 H   0  0  0  0  0  0  0  0  0  0  0  0
   -2.8907    1.4066    0.1720 H   0  0  0  0  0  0  0  0  0  0  0  0
    3.0732   -1.4675    1.1075 H   0  0  0  0  0  0  0  0  0  0  0  0
    5.4790   -0.9525    1.1072 H   0  0  0  0  0  0  0  0  0  0  0  0
    6.3146    1.1311    0.0513 H   0  0  0  0  0  0  0  0  0  0  0  0
    4.7179    2.7019   -1.0173 H   0  0  0  0  0  0  0  0  0  0  0  0
    2.3068    2.1942   -1.0466 H   0  0  0  0  0  0  0  0  0  0  0  0
  1  2  1  0
  2  3  1  0
  3  4  2  0
  4  5  1  0
  5  6  2  0
  6  7  1  0
  7  8  1  0
  8  9  2  0
  9 10  1  0
 10 11  2  0
  8 12  1  0
 12 13  2  0
 13 14  1  0
 14 15  2  0
 15 16  1  0
 16 17  2  0
 11  3  1  0
 10  6  1  0
 17 12  1  0
  1 18  1  0
  1 19  1  0
  1 20  1  0
  4 21  1  0
  5 22  1  0
  7 23  1  0
  9 24  1  0
 11 25  1  0
 13 26  1  0
 14 27  1  0
 15 28  1  0
 16 29  1  0
 17 30  1  0
M  END
>  <SASA>  (3) 
453.55560678882654

$$$$

     RDKit          3D

 30 32  0  0  0  0  0  0  0  0999 V2000
    5.8175   -0.4110   -0.1177 C   0  0  0  0  0  0  0  0  0  0  0  0
    4.6457   -0.4647   -0.9208 O   0  0  0  0  0  0  0  0  0  0  0  0
    3.4474   -0.2765   -0.2841 C   0  0  0  0  0  0  0  0  0  0  0  0
    3.2755   -0.0399    1.0800 C   0  0  0  0  0  0  0  0  0  0  0  0
    1.9990    0.1395    1.6315 C   0  0  0  0  0  0  0  0  0  0  0  0
    0.9026    0.0743    0.7659 C   0  0  0  0  0  0  0  0  0  0  0  0
   -0.4428    0.2082    1.0191 N   0  0  0  0  0  0  0  0  0  0  0  0
   -1.1816    0.0741   -0.1366 C   0  0  0  0  0  0  0  0  0  0  0  0
   -0.2710   -0.1665   -1.1518 C   0  0  0  0  0  0  0  0  0  0  0  0
    1.0383   -0.1619   -0.5982 C   0  0  0  0  0  0  0  0  0  0  0  0
    2.3303   -0.3389   -1.1288 C   0  0  0  0  0  0  0  0  0  0  0  0
   -2.6424    0.1590   -0.1651 C   0  0  0  0  0  0  0  0  0  0  0  0
   -3.3325    1.0571    0.6611 C   0  0  0  0  0  0  0  0  0  0  0  0
   -4.7281    1.1284    0.6275 C   0  0  0  0  0  0  0  0  0  0  0  0
   -5.4490    0.3036   -0.2331 C   0  0  0  0  0  0  0  0  0  0  0  0
   -4.7758   -0.5897   -1.0630 C   0  0  0  0  0  0  0  0  0  0  0  0
   -3.3805   -0.6596   -1.0305 C   0  0  0  0  0  0  0  0  0  0  0  0
    5.9359    0.5753    0.3430 H   0  0  0  0  0  0  0  0  0  0  0  0
    5.8153   -1.2038    0.6376 H   0  0  0  0  0  0  0  0  0  0  0  0
    6.6788   -0.5777   -0.7718 H   0  0  0  0  0  0  0  0  0  0  0  0
    4.1227    0.0123    1.7564 H   0  0  0  0  0  0  0  0  0  0  0  0
    1.8742    0.3226    2.6937 H   0  0  0  0  0  0  0  0  0  0  0  0
   -0.8365    0.3615    1.9357 H   0  0  0  0  0  0  0  0  0  0  0  0
   -0.5187   -0.3200   -2.1941 H   0  0  0  0  0  0  0  0  0  0  0  0
    2.4638   -0.5241   -2.1906 H   0  0  0  0  0  0  0  0  0  0  0  0
   -2.7937    1.7285    1.3244 H   0  0  0  0  0  0  0  0  0  0  0  0
   -5.2512    1.8333    1.2685 H   0  0  0  0  0  0  0  0  0  0  0  0
   -6.5340    0.3598   -0.2605 H   0  0  0  0  0  0  0  0  0  0  0  0
   -5.3344   -1.2339   -1.7369 H   0  0  0  0  0  0  0  0  0  0  0  0
   -2.8748   -1.3696   -1.6806 H   0  0  0  0  0  0  0  0  0  0  0  0
  1  2  1  0
  2  3  1  0
  3  4  2  0
  4  5  1  0
  5  6  2  0
  6  7  1  0
  7  8  1  0
  8  9  2  0
  9 10  1  0
 10 11  2  0
  8 12  1  0
 12 13  2  0
 13 14  1  0
 14 15  2  0
 15 16  1  0
 16 17  2  0
 11  3  1  0
 10  6  1  0
 17 12  1  0
  1 18  1  0
  1 19  1  0
  1 20  1  0
  4 21  1  0
  5 22  1  0
  7 23  1  0
  9 24  1  0
 11 25  1  0
 13 26  1  0
 14 27  1  0
 15 28  1  0
 16 29  1  0
 17 30  1  0
M  END
>  <SASA>  (4) 
453.55560678882654

$$$$

     RDKit          3D

 30 32  0  0  0  0  0  0  0  0999 V2000
    5.8142   -0.1929   -0.2756 C   0  0  0  0  0  0  0  0  0  0  0  0
    4.6255   -0.9570   -0.4301 O   0  0  0  0  0  0  0  0  0  0  0  0
    3.4405   -0.3223   -0.1659 C   0  0  0  0  0  0  0  0  0  0  0  0
    3.2978    1.0039    0.2430 C   0  0  0  0  0  0  0  0  0  0  0  0
    2.0329    1.5570    0.4877 C   0  0  0  0  0  0  0  0  0  0  0  0
    0.9177    0.7329    0.3064 C   0  0  0  0  0  0  0  0  0  0  0  0
   -0.4224    0.9970    0.4697 N   0  0  0  0  0  0  0  0  0  0  0  0
   -1.1865   -0.1119    0.1771 C   0  0  0  0  0  0  0  0  0  0  0  0
   -0.2963   -1.1144   -0.1696 C   0  0  0  0  0  0  0  0  0  0  0  0
    1.0245   -0.5937   -0.0982 C   0  0  0  0  0  0  0  0  0  0  0  0
    2.3054   -1.1267   -0.3379 C   0  0  0  0  0  0  0  0  0  0  0  0
   -2.6467   -0.1243    0.2753 C   0  0  0  0  0  0  0  0  0  0  0  0
   -3.3149   -1.2735    0.7189 C   0  0  0  0  0  0  0  0  0  0  0  0
   -4.7085   -1.2950    0.8204 C   0  0  0  0  0  0  0  0  0  0  0  0
   -5.4505   -0.1681    0.4748 C   0  0  0  0  0  0  0  0  0  0  0  0
   -4.8004    0.9793    0.0259 C   0  0  0  0  0  0  0  0  0  0  0  0
   -3.4063    1.0012   -0.0739 C   0  0  0  0  0  0  0  0  0  0  0  0
    6.6616   -0.8394   -0.5236 H   0  0  0  0  0  0  0  0  0  0  0  0
    5.9399    0.1368    0.7610 H   0  0  0  0  0  0  0  0  0  0  0  0
    5.8306    0.6564   -0.9665 H   0  0  0  0  0  0  0  0  0  0  0  0
    4.1596    1.6483    0.3847 H   0  0  0  0  0  0  0  0  0  0  0  0
    1.9308    2.5893    0.8059 H   0  0  0  0  0  0  0  0  0  0  0  0
   -0.7936    1.8810    0.7850 H   0  0  0  0  0  0  0  0  0  0  0  0
   -0.5664   -2.1219   -0.4580 H   0  0  0  0  0  0  0  0  0  0  0  0
    2.4163   -2.1594   -0.6552 H   0  0  0  0  0  0  0  0  0  0  0  0
   -2.7539   -2.1612    1.0014 H   0  0  0  0  0  0  0  0  0  0  0  0
   -5.2119   -2.1926    1.1697 H   0  0  0  0  0  0  0  0  0  0  0  0
   -6.5345   -0.1858    0.5512 H   0  0  0  0  0  0  0  0  0  0  0  0
   -5.3784    1.8562   -0.2539 H   0  0  0  0  0  0  0  0  0  0  0  0
   -2.9262    1.9008   -0.4495 H   0  0  0  0  0  0  0  0  0  0  0  0
  1  2  1  0
  2  3  1  0
  3  4  2  0
  4  5  1  0
  5  6  2  0
  6  7  1  0
  7  8  1  0
  8  9  2  0
  9 10  1  0
 10 11  2  0
  8 12  1  0
 12 13  2  0
 13 14  1  0
 14 15  2  0
 15 16  1  0
 16 17  2  0
 11  3  1  0
 10  6  1  0
 17 12  1  0
  1 18  1  0
  1 19  1  0
  1 20  1  0
  4 21  1  0
  5 22  1  0
  7 23  1  0
  9 24  1  0
 11 25  1  0
 13 26  1  0
 14 27  1  0
 15 28  1  0
 16 29  1  0
 17 30  1  0
M  END
>  <SASA>  (5) 
453.55560678882654

$$$$

     RDKit          3D

 30 32  0  0  0  0  0  0  0  0999 V2000
   -5.3032    0.4085    1.1401 C   0  0  0  0  0  0  0  0  0  0  0  0
   -4.9066    0.0264   -0.1707 O   0  0  0  0  0  0  0  0  0  0  0  0
   -3.5606   -0.0839   -0.4016 C   0  0  0  0  0  0  0  0  0  0  0  0
   -3.2273   -0.4571   -1.7055 C   0  0  0  0  0  0  0  0  0  0  0  0
   -1.8968   -0.6145   -2.1089 C   0  0  0  0  0  0  0  0  0  0  0  0
   -0.9062   -0.3815   -1.1512 C   0  0  0  0  0  0  0  0  0  0  0  0
    0.4635   -0.4569   -1.2516 N   0  0  0  0  0  0  0  0  0  0  0  0
    1.0676   -0.1402   -0.0543 C   0  0  0  0  0  0  0  0  0  0  0  0
    0.0424    0.1306    0.8362 C   0  0  0  0  0  0  0  0  0  0  0  0
   -1.1996   -0.0108    0.1576 C   0  0  0  0  0  0  0  0  0  0  0  0
   -2.5495    0.1416    0.5403 C   0  0  0  0  0  0  0  0  0  0  0  0
    2.5188   -0.1477    0.1345 C   0  0  0  0  0  0  0  0  0  0  0  0
    3.3842    0.2741   -0.8847 C   0  0  0  0  0  0  0  0  0  0  0  0
    4.7690    0.2609   -0.6948 C   0  0  0  0  0  0  0  0  0  0  0  0
    5.3038   -0.1730    0.5161 C   0  0  0  0  0  0  0  0  0  0  0  0
    4.4553   -0.5902    1.5388 C   0  0  0  0  0  0  0  0  0  0  0  0
    3.0709   -0.5754    1.3494 C   0  0  0  0  0  0  0  0  0  0  0  0
   -6.3964    0.4533    1.1586 H   0  0  0  0  0  0  0  0  0  0  0  0
   -4.9254    1.4048    1.3927 H   0  0  0  0  0  0  0  0  0  0  0  0
   -4.9884   -0.3345    1.8804 H   0  0  0  0  0  0  0  0  0  0  0  0
   -4.0227   -0.6304   -2.4276 H   0  0  0  0  0  0  0  0  0  0  0  0
   -1.6540   -0.9052   -3.1253 H   0  0  0  0  0  0  0  0  0  0  0  0
    0.9575   -0.7308   -2.0882 H   0  0  0  0  0  0  0  0  0  0  0  0
    0.1715    0.4146    1.8725 H   0  0  0  0  0  0  0  0  0  0  0  0
   -2.7655    0.4308    1.5612 H   0  0  0  0  0  0  0  0  0  0  0  0
    2.9928    0.6392   -1.8305 H   0  0  0  0  0  0  0  0  0  0  0  0
    5.4291    0.5961   -1.4907 H   0  0  0  0  0  0  0  0  0  0  0  0
    6.3805   -0.1822    0.6642 H   0  0  0  0  0  0  0  0  0  0  0  0
    4.8688   -0.9286    2.4853 H   0  0  0  0  0  0  0  0  0  0  0  0
    2.4266   -0.9134    2.1576 H   0  0  0  0  0  0  0  0  0  0  0  0
  1  2  1  0
  2  3  1  0
  3  4  2  0
  4  5  1  0
  5  6  2  0
  6  7  1  0
  7  8  1  0
  8  9  2  0
  9 10  1  0
 10 11  2  0
  8 12  1  0
 12 13  2  0
 13 14  1  0
 14 15  2  0
 15 16  1  0
 16 17  2  0
 11  3  1  0
 10  6  1  0
 17 12  1  0
  1 18  1  0
  1 19  1  0
  1 20  1  0
  4 21  1  0
  5 22  1  0
  7 23  1  0
  9 24  1  0
 11 25  1  0
 13 26  1  0
 14 27  1  0
 15 28  1  0
 16 29  1  0
 17 30  1  0
M  END
>  <SASA>  (6) 
453.55560678882654

$$$$

     RDKit          3D

 30 32  0  0  0  0  0  0  0  0999 V2000
    5.3935    0.7548    0.0160 C   0  0  0  0  0  0  0  0  0  0  0  0
    4.8740   -0.5681    0.0582 O   0  0  0  0  0  0  0  0  0  0  0  0
    3.5109   -0.6986    0.0118 C   0  0  0  0  0  0  0  0  0  0  0  0
    3.0557   -2.0184    0.0517 C   0  0  0  0  0  0  0  0  0  0  0  0
    1.6918   -2.3282    0.0128 C   0  0  0  0  0  0  0  0  0  0  0  0
    0.7953   -1.2594   -0.0692 C   0  0  0  0  0  0  0  0  0  0  0  0
   -0.5792   -1.2533   -0.1215 N   0  0  0  0  0  0  0  0  0  0  0  0
   -1.0677    0.0327   -0.2012 C   0  0  0  0  0  0  0  0  0  0  0  0
    0.0369    0.8675   -0.1841 C   0  0  0  0  0  0  0  0  0  0  0  0
    1.2109    0.0680   -0.1085 C   0  0  0  0  0  0  0  0  0  0  0  0
    2.5922    0.3549   -0.0680 C   0  0  0  0  0  0  0  0  0  0  0  0
   -2.4969    0.3418   -0.2595 C   0  0  0  0  0  0  0  0  0  0  0  0
   -3.0016    1.4756    0.3914 C   0  0  0  0  0  0  0  0  0  0  0  0
   -4.3651    1.7778    0.3453 C   0  0  0  0  0  0  0  0  0  0  0  0
   -5.2394    0.9514   -0.3566 C   0  0  0  0  0  0  0  0  0  0  0  0
   -4.7511   -0.1755   -1.0139 C   0  0  0  0  0  0  0  0  0  0  0  0
   -3.3874   -0.4787   -0.9663 C   0  0  0  0  0  0  0  0  0  0  0  0
    6.4848    0.6866    0.0587 H   0  0  0  0  0  0  0  0  0  0  0  0
    5.1279    1.2539   -0.9218 H   0  0  0  0  0  0  0  0  0  0  0  0
    5.0626    1.3368    0.8825 H   0  0  0  0  0  0  0  0  0  0  0  0
    3.7801   -2.8279    0.1148 H   0  0  0  0  0  0  0  0  0  0  0  0
    1.3539   -3.3583    0.0449 H   0  0  0  0  0  0  0  0  0  0  0  0
   -1.1528   -2.0831   -0.0835 H   0  0  0  0  0  0  0  0  0  0  0  0
    0.0062    1.9481   -0.2330 H   0  0  0  0  0  0  0  0  0  0  0  0
    2.9037    1.3915   -0.0998 H   0  0  0  0  0  0  0  0  0  0  0  0
   -2.3375    2.1290    0.9522 H   0  0  0  0  0  0  0  0  0  0  0  0
   -4.7422    2.6584    0.8587 H   0  0  0  0  0  0  0  0  0  0  0  0
   -6.2996    1.1878   -0.3945 H   0  0  0  0  0  0  0  0  0  0  0  0
   -5.4303   -0.8163   -1.5703 H   0  0  0  0  0  0  0  0  0  0  0  0
   -3.0296   -1.3507   -1.5072 H   0  0  0  0  0  0  0  0  0  0  0  0
  1  2  1  0
  2  3  1  0
  3  4  2  0
  4  5  1  0
  5  6  2  0
  6  7  1  0
  7  8  1  0
  8  9  2  0
  9 10  1  0
 10 11  2  0
  8 12  1  0
 12 13  2  0
 13 14  1  0
 14 15  2  0
 15 16  1  0
 16 17  2  0
 11  3  1  0
 10  6  1  0
 17 12  1  0
  1 18  1  0
  1 19  1  0
  1 20  1  0
  4 21  1  0
  5 22  1  0
  7 23  1  0
  9 24  1  0
 11 25  1  0
 13 26  1  0
 14 27  1  0
 15 28  1  0
 16 29  1  0
 17 30  1  0
M  END
>  <SASA>  (7) 
453.55560678882654

$$$$

     RDKit          3D

 30 32  0  0  0  0  0  0  0  0999 V2000
   -5.3849   -0.0404    0.8282 C   0  0  0  0  0  0  0  0  0  0  0  0
   -4.8837   -0.1468   -0.4981 O   0  0  0  0  0  0  0  0  0  0  0  0
   -3.5218   -0.1341   -0.6470 C   0  0  0  0  0  0  0  0  0  0  0  0
   -3.0845   -0.2460   -1.9686 C   0  0  0  0  0  0  0  0  0  0  0  0
   -1.7242   -0.2498   -2.2961 C   0  0  0  0  0  0  0  0  0  0  0  0
   -0.8124   -0.1378   -1.2431 C   0  0  0  0  0  0  0  0  0  0  0  0
    0.5628   -0.1120   -1.2560 N   0  0  0  0  0  0  0  0  0  0  0  0
    1.0694    0.0087    0.0197 C   0  0  0  0  0  0  0  0  0  0  0  0
   -0.0249    0.0758    0.8655 C   0  0  0  0  0  0  0  0  0  0  0  0
   -1.2102   -0.0221    0.0853 C   0  0  0  0  0  0  0  0  0  0  0  0
   -2.5882   -0.0207    0.3903 C   0  0  0  0  0  0  0  0  0  0  0  0
    2.5031    0.0722    0.3068 C   0  0  0  0  0  0  0  0  0  0  0  0
    2.9819    0.8963    1.3341 C   0  0  0  0  0  0  0  0  0  0  0  0
    4.3492    0.9672    1.6140 C   0  0  0  0  0  0  0  0  0  0  0  0
    5.2532    0.2109    0.8720 C   0  0  0  0  0  0  0  0  0  0  0  0
    4.7911   -0.6177   -0.1480 C   0  0  0  0  0  0  0  0  0  0  0  0
    3.4236   -0.6873   -0.4290 C   0  0  0  0  0  0  0  0  0  0  0  0
   -5.0983    0.9134    1.2834 H   0  0  0  0  0  0  0  0  0  0  0  0
   -6.4776   -0.0682    0.7756 H   0  0  0  0  0  0  0  0  0  0  0  0
   -5.0600   -0.8866    1.4426 H   0  0  0  0  0  0  0  0  0  0  0  0
   -3.8204   -0.3325   -2.7655 H   0  0  0  0  0  0  0  0  0  0  0  0
   -1.4003   -0.3372   -3.3276 H   0  0  0  0  0  0  0  0  0  0  0  0
    1.1238   -0.1535   -2.0942 H   0  0  0  0  0  0  0  0  0  0  0  0
    0.0208    0.1738    1.9423 H   0  0  0  0  0  0  0  0  0  0  0  0
   -2.8856    0.0694    1.4276 H   0  0  0  0  0  0  0  0  0  0  0  0
    2.2939    1.5016    1.9195 H   0  0  0  0  0  0  0  0  0  0  0  0
    4.7058    1.6142    2.4112 H   0  0  0  0  0  0  0  0  0  0  0  0
    6.3164    0.2643    1.0913 H   0  0  0  0  0  0  0  0  0  0  0  0
    5.4941   -1.2161   -0.7217 H   0  0  0  0  0  0  0  0  0  0  0  0
    3.0879   -1.3592   -1.2144 H   0  0  0  0  0  0  0  0  0  0  0  0
  1  2  1  0
  2  3  1  0
  3  4  2  0
  4  5  1  0
  5  6  2  0
  6  7  1  0
  7  8  1  0
  8  9  2  0
  9 10  1  0
 10 11  2  0
  8 12  1  0
 12 13  2  0
 13 14  1  0
 14 15  2  0
 15 16  1  0
 16 17  2  0
 11  3  1  0
 10  6  1  0
 17 12  1  0
  1 18  1  0
  1 19  1  0
  1 20  1  0
  4 21  1  0
  5 22  1  0
  7 23  1  0
  9 24  1  0
 11 25  1  0
 13 26  1  0
 14 27  1  0
 15 28  1  0
 16 29  1  0
 17 30  1  0
M  END
>  <SASA>  (8) 
453.55560678882654

$$$$

     RDKit          3D

 30 32  0  0  0  0  0  0  0  0999 V2000
    5.7984   -0.6129   -0.2837 C   0  0  0  0  0  0  0  0  0  0  0  0
    4.5942   -1.2081    0.1815 O   0  0  0  0  0  0  0  0  0  0  0  0
    3.4266   -0.5487   -0.0992 C   0  0  0  0  0  0  0  0  0  0  0  0
    3.3150    0.6514   -0.8018 C   0  0  0  0  0  0  0  0  0  0  0  0
    2.0657    1.2437   -1.0349 C   0  0  0  0  0  0  0  0  0  0  0  0
    0.9341    0.5900   -0.5373 C   0  0  0  0  0  0  0  0  0  0  0  0
   -0.3970    0.9286   -0.6132 N   0  0  0  0  0  0  0  0  0  0  0  0
   -1.1845   -0.0063    0.0231 C   0  0  0  0  0  0  0  0  0  0  0  0
   -0.3209   -0.9755    0.5052 C   0  0  0  0  0  0  0  0  0  0  0  0
    1.0096   -0.6082    0.1652 C   0  0  0  0  0  0  0  0  0  0  0  0
    2.2753   -1.1837    0.3869 C   0  0  0  0  0  0  0  0  0  0  0  0
   -2.6432    0.0909    0.0906 C   0  0  0  0  0  0  0  0  0  0  0  0
   -3.4322   -1.0649    0.0170 C   0  0  0  0  0  0  0  0  0  0  0  0
   -4.8260   -0.9832    0.0763 C   0  0  0  0  0  0  0  0  0  0  0  0
   -5.4468    0.2558    0.2146 C   0  0  0  0  0  0  0  0  0  0  0  0
   -4.6752    1.4128    0.2958 C   0  0  0  0  0  0  0  0  0  0  0  0
   -3.2811    1.3311    0.2347 C   0  0  0  0  0  0  0  0  0  0  0  0
    5.9552    0.3701    0.1726 H   0  0  0  0  0  0  0  0  0  0  0  0
    6.6289   -1.2569    0.0210 H   0  0  0  0  0  0  0  0  0  0  0  0
    5.8108   -0.5491   -1.3768 H   0  0  0  0  0  0  0  0  0  0  0  0
    4.1898    1.1635   -1.1898 H   0  0  0  0  0  0  0  0  0  0  0  0
    1.9878    2.1771   -1.5828 H   0  0  0  0  0  0  0  0  0  0  0  0
   -0.7501    1.7436   -1.0927 H   0  0  0  0  0  0  0  0  0  0  0  0
   -0.6136   -1.8582    1.0588 H   0  0  0  0  0  0  0  0  0  0  0  0
    2.3618   -2.1184    0.9330 H   0  0  0  0  0  0  0  0  0  0  0  0
   -2.9676   -2.0412   -0.0994 H   0  0  0  0  0  0  0  0  0  0  0  0
   -5.4243   -1.8884    0.0139 H   0  0  0  0  0  0  0  0  0  0  0  0
   -6.5308    0.3190    0.2634 H   0  0  0  0  0  0  0  0  0  0  0  0
   -5.1575    2.3796    0.4140 H   0  0  0  0  0  0  0  0  0  0  0  0
   -2.7024    2.2465    0.3244 H   0  0  0  0  0  0  0  0  0  0  0  0
  1  2  1  0
  2  3  1  0
  3  4  2  0
  4  5  1  0
  5  6  2  0
  6  7  1  0
  7  8  1  0
  8  9  2  0
  9 10  1  0
 10 11  2  0
  8 12  1  0
 12 13  2  0
 13 14  1  0
 14 15  2  0
 15 16  1  0
 16 17  2  0
 11  3  1  0
 10  6  1  0
 17 12  1  0
  1 18  1  0
  1 19  1  0
  1 20  1  0
  4 21  1  0
  5 22  1  0
  7 23  1  0
  9 24  1  0
 11 25  1  0
 13 26  1  0
 14 27  1  0
 15 28  1  0
 16 29  1  0
 17 30  1  0
M  END
>  <SASA>  (9) 
453.55560678882654

$$$$

     RDKit          3D

 30 32  0  0  0  0  0  0  0  0999 V2000
    5.8302   -0.1873    0.0232 C   0  0  0  0  0  0  0  0  0  0  0  0
    4.6579   -0.9422    0.3001 O   0  0  0  0  0  0  0  0  0  0  0  0
    3.4552   -0.3178    0.0987 C   0  0  0  0  0  0  0  0  0  0  0  0
    3.2797    0.9913   -0.3506 C   0  0  0  0  0  0  0  0  0  0  0  0
    1.9988    1.5349   -0.5231 C   0  0  0  0  0  0  0  0  0  0  0  0
    0.9019    0.7186   -0.2300 C   0  0  0  0  0  0  0  0  0  0  0  0
   -0.4471    0.9775   -0.3023 N   0  0  0  0  0  0  0  0  0  0  0  0
   -1.1851   -0.1217    0.0802 C   0  0  0  0  0  0  0  0  0  0  0  0
   -0.2692   -1.1037    0.4187 C   0  0  0  0  0  0  0  0  0  0  0  0
    1.0414   -0.5897    0.2216 C   0  0  0  0  0  0  0  0  0  0  0  0
    2.3377   -1.1136    0.3870 C   0  0  0  0  0  0  0  0  0  0  0  0
   -2.6483   -0.1296    0.1123 C   0  0  0  0  0  0  0  0  0  0  0  0
   -3.3983    0.5510   -0.8572 C   0  0  0  0  0  0  0  0  0  0  0  0
   -4.7954    0.5388   -0.8157 C   0  0  0  0  0  0  0  0  0  0  0  0
   -5.4582   -0.1545    0.1945 C   0  0  0  0  0  0  0  0  0  0  0  0
   -4.7255   -0.8392    1.1612 C   0  0  0  0  0  0  0  0  0  0  0  0
   -3.3288   -0.8283    1.1186 C   0  0  0  0  0  0  0  0  0  0  0  0
    5.8754    0.0992   -1.0327 H   0  0  0  0  0  0  0  0  0  0  0  0
    5.8984    0.6898    0.6752 H   0  0  0  0  0  0  0  0  0  0  0  0
    6.6950   -0.8244    0.2319 H   0  0  0  0  0  0  0  0  0  0  0  0
    4.1272    1.6292   -0.5801 H   0  0  0  0  0  0  0  0  0  0  0  0
    1.8712    2.5542   -0.8725 H   0  0  0  0  0  0  0  0  0  0  0  0
   -0.8420    1.8646   -0.5775 H   0  0  0  0  0  0  0  0  0  0  0  0
   -0.5150   -2.0995    0.7639 H   0  0  0  0  0  0  0  0  0  0  0  0
    2.4742   -2.1323    0.7378 H   0  0  0  0  0  0  0  0  0  0  0  0
   -2.9070    1.0798   -1.6696 H   0  0  0  0  0  0  0  0  0  0  0  0
   -5.3656    1.0651   -1.5769 H   0  0  0  0  0  0  0  0  0  0  0  0
   -6.5445   -0.1653    0.2261 H   0  0  0  0  0  0  0  0  0  0  0  0
   -5.2388   -1.3825    1.9502 H   0  0  0  0  0  0  0  0  0  0  0  0
   -2.7756   -1.3624    1.8876 H   0  0  0  0  0  0  0  0  0  0  0  0
  1  2  1  0
  2  3  1  0
  3  4  2  0
  4  5  1  0
  5  6  2  0
  6  7  1  0
  7  8  1  0
  8  9  2  0
  9 10  1  0
 10 11  2  0
  8 12  1  0
 12 13  2  0
 13 14  1  0
 14 15  2  0
 15 16  1  0
 16 17  2  0
 11  3  1  0
 10  6  1  0
 17 12  1  0
  1 18  1  0
  1 19  1  0
  1 20  1  0
  4 21  1  0
  5 22  1  0
  7 23  1  0
  9 24  1  0
 11 25  1  0
 13 26  1  0
 14 27  1  0
 15 28  1  0
 16 29  1  0
 17 30  1  0
M  END
>  <SASA>  (10) 
453.55560678882654

$$$$

     RDKit          3D

 30 32  0  0  0  0  0  0  0  0999 V2000
   -5.3937    0.7465   -0.1993 C   0  0  0  0  0  0  0  0  0  0  0  0
   -4.8752   -0.5765   -0.1510 O   0  0  0  0  0  0  0  0  0  0  0  0
   -3.5118   -0.7049   -0.1072 C   0  0  0  0  0  0  0  0  0  0  0  0
   -3.0573   -2.0248   -0.0654 C   0  0  0  0  0  0  0  0  0  0  0  0
   -1.6932   -2.3325   -0.0181 C   0  0  0  0  0  0  0  0  0  0  0  0
   -0.7957   -1.2614   -0.0153 C   0  0  0  0  0  0  0  0  0  0  0  0
    0.5792   -1.2531    0.0263 N   0  0  0  0  0  0  0  0  0  0  0  0
    1.0689    0.0348    0.0085 C   0  0  0  0  0  0  0  0  0  0  0  0
   -0.0362    0.8681   -0.0314 C   0  0  0  0  0  0  0  0  0  0  0  0
   -1.2107    0.0661   -0.0536 C   0  0  0  0  0  0  0  0  0  0  0  0
   -2.5923    0.3510   -0.1011 C   0  0  0  0  0  0  0  0  0  0  0  0
    2.4981    0.3463    0.0545 C   0  0  0  0  0  0  0  0  0  0  0  0
    2.9546    1.4658    0.7631 C   0  0  0  0  0  0  0  0  0  0  0  0
    4.3174    1.7701    0.8166 C   0  0  0  0  0  0  0  0  0  0  0  0
    5.2394    0.9602    0.1579 C   0  0  0  0  0  0  0  0  0  0  0  0
    4.7996   -0.1523   -0.5558 C   0  0  0  0  0  0  0  0  0  0  0  0
    3.4365   -0.4576   -0.6078 C   0  0  0  0  0  0  0  0  0  0  0  0
   -5.0660    1.2665   -1.1056 H   0  0  0  0  0  0  0  0  0  0  0  0
   -5.1240    1.3096    0.7003 H   0  0  0  0  0  0  0  0  0  0  0  0
   -6.4852    0.6765   -0.2327 H   0  0  0  0  0  0  0  0  0  0  0  0
   -3.7825   -2.8361   -0.0697 H   0  0  0  0  0  0  0  0  0  0  0  0
   -1.3559   -3.3628    0.0143 H   0  0  0  0  0  0  0  0  0  0  0  0
    1.1508   -2.0830    0.0850 H   0  0  0  0  0  0  0  0  0  0  0  0
   -0.0048    1.9496   -0.0543 H   0  0  0  0  0  0  0  0  0  0  0  0
   -2.9033    1.3877   -0.1311 H   0  0  0  0  0  0  0  0  0  0  0  0
    2.2523    2.1061    1.2915 H   0  0  0  0  0  0  0  0  0  0  0  0
    4.6566    2.6395    1.3738 H   0  0  0  0  0  0  0  0  0  0  0  0
    6.2991    1.1982    0.1976 H   0  0  0  0  0  0  0  0  0  0  0  0
    5.5166   -0.7800   -1.0786 H   0  0  0  0  0  0  0  0  0  0  0  0
    3.1185   -1.3178   -1.1909 H   0  0  0  0  0  0  0  0  0  0  0  0
  1  2  1  0
  2  3  1  0
  3  4  2  0
  4  5  1  0
  5  6  2  0
  6  7  1  0
  7  8  1  0
  8  9  2  0
  9 10  1  0
 10 11  2  0
  8 12  1  0
 12 13  2  0
 13 14  1  0
 14 15  2  0
 15 16  1  0
 16 17  2  0
 11  3  1  0
 10  6  1  0
 17 12  1  0
  1 18  1  0
  1 19  1  0
  1 20  1  0
  4 21  1  0
  5 22  1  0
  7 23  1  0
  9 24  1  0
 11 25  1  0
 13 26  1  0
 14 27  1  0
 15 28  1  0
 16 29  1  0
 17 30  1  0
M  END
>  <SASA>  (11) 
453.55560678882654

$$$$

     RDKit          3D

 30 32  0  0  0  0  0  0  0  0999 V2000
   -5.8093    0.3266    0.5563 C   0  0  0  0  0  0  0  0  0  0  0  0
   -4.5910    0.6579    1.2096 O   0  0  0  0  0  0  0  0  0  0  0  0
   -3.4298    0.2945    0.5800 C   0  0  0  0  0  0  0  0  0  0  0  0
   -3.3375   -0.3681   -0.6443 C   0  0  0  0  0  0  0  0  0  0  0  0
   -2.0932   -0.6942   -1.2022 C   0  0  0  0  0  0  0  0  0  0  0  0
   -0.9465   -0.3331   -0.4879 C   0  0  0  0  0  0  0  0  0  0  0  0
    0.3840   -0.5184   -0.7840 N   0  0  0  0  0  0  0  0  0  0  0  0
    1.1901   -0.0045    0.2086 C   0  0  0  0  0  0  0  0  0  0  0  0
    0.3384    0.5361    1.1573 C   0  0  0  0  0  0  0  0  0  0  0  0
   -1.0028    0.3297    0.7338 C   0  0  0  0  0  0  0  0  0  0  0  0
   -2.2638    0.6465    1.2740 C   0  0  0  0  0  0  0  0  0  0  0  0
    2.6519   -0.0501    0.1540 C   0  0  0  0  0  0  0  0  0  0  0  0
    3.3229   -1.1553   -0.3883 C   0  0  0  0  0  0  0  0  0  0  0  0
    4.7195   -1.1876   -0.4376 C   0  0  0  0  0  0  0  0  0  0  0  0
    5.4606   -0.1161    0.0555 C   0  0  0  0  0  0  0  0  0  0  0  0
    4.8070    0.9860    0.6015 C   0  0  0  0  0  0  0  0  0  0  0  0
    3.4109    1.0173    0.6523 C   0  0  0  0  0  0  0  0  0  0  0  0
   -5.8883    0.8320   -0.4119 H   0  0  0  0  0  0  0  0  0  0  0  0
   -5.9172   -0.7576    0.4476 H   0  0  0  0  0  0  0  0  0  0  0  0
   -6.6324    0.6812    1.1842 H   0  0  0  0  0  0  0  0  0  0  0  0
   -4.2239   -0.6513   -1.2028 H   0  0  0  0  0  0  0  0  0  0  0  0
   -2.0303   -1.2093   -2.1552 H   0  0  0  0  0  0  0  0  0  0  0  0
    0.7233   -0.9535   -1.6292 H   0  0  0  0  0  0  0  0  0  0  0  0
    0.6468    1.0232    2.0732 H   0  0  0  0  0  0  0  0  0  0  0  0
   -2.3354    1.1632    2.2265 H   0  0  0  0  0  0  0  0  0  0  0  0
    2.7698   -2.0146   -0.7581 H   0  0  0  0  0  0  0  0  0  0  0  0
    5.2279   -2.0529   -0.8547 H   0  0  0  0  0  0  0  0  0  0  0  0
    6.5465   -0.1416    0.0186 H   0  0  0  0  0  0  0  0  0  0  0  0
    5.3817    1.8234    0.9886 H   0  0  0  0  0  0  0  0  0  0  0  0
    2.9201    1.8907    1.0751 H   0  0  0  0  0  0  0  0  0  0  0  0
  1  2  1  0
  2  3  1  0
  3  4  2  0
  4  5  1  0
  5  6  2  0
  6  7  1  0
  7  8  1  0
  8  9  2  0
  9 10  1  0
 10 11  2  0
  8 12  1  0
 12 13  2  0
 13 14  1  0
 14 15  2  0
 15 16  1  0
 16 17  2  0
 11  3  1  0
 10  6  1  0
 17 12  1  0
  1 18  1  0
  1 19  1  0
  1 20  1  0
  4 21  1  0
  5 22  1  0
  7 23  1  0
  9 24  1  0
 11 25  1  0
 13 26  1  0
 14 27  1  0
 15 28  1  0
 16 29  1  0
 17 30  1  0
M  END
>  <SASA>  (12) 
453.55560678882654

$$$$

     RDKit          3D

 30 32  0  0  0  0  0  0  0  0999 V2000
    5.8262    0.1008   -0.2335 C   0  0  0  0  0  0  0  0  0  0  0  0
    4.6984    0.6380    0.4448 O   0  0  0  0  0  0  0  0  0  0  0  0
    3.4641    0.2066    0.0359 C   0  0  0  0  0  0  0  0  0  0  0  0
    3.2169   -0.7133   -0.9835 C   0  0  0  0  0  0  0  0  0  0  0  0
    1.9091   -1.0875   -1.3233 C   0  0  0  0  0  0  0  0  0  0  0  0
    0.8597   -0.5056   -0.6053 C   0  0  0  0  0  0  0  0  0  0  0  0
   -0.5003   -0.6797   -0.7150 N   0  0  0  0  0  0  0  0  0  0  0  0
   -1.1764    0.1009    0.1977 C   0  0  0  0  0  0  0  0  0  0  0  0
   -0.2080    0.7807    0.9173 C   0  0  0  0  0  0  0  0  0  0  0  0
    1.0710    0.4129    0.4178 C   0  0  0  0  0  0  0  0  0  0  0  0
    2.3931    0.7732    0.7410 C   0  0  0  0  0  0  0  0  0  0  0  0
   -2.6351    0.1098    0.3157 C   0  0  0  0  0  0  0  0  0  0  0  0
   -3.2411    0.2353    1.5730 C   0  0  0  0  0  0  0  0  0  0  0  0
   -4.6329    0.2408    1.6978 C   0  0  0  0  0  0  0  0  0  0  0  0
   -5.4351    0.1255    0.5651 C   0  0  0  0  0  0  0  0  0  0  0  0
   -4.8469    0.0068   -0.6920 C   0  0  0  0  0  0  0  0  0  0  0  0
   -3.4546   -0.0005   -0.8164 C   0  0  0  0  0  0  0  0  0  0  0  0
    6.7241    0.5439    0.2080 H   0  0  0  0  0  0  0  0  0  0  0  0
    5.8121    0.3668   -1.2957 H   0  0  0  0  0  0  0  0  0  0  0  0
    5.8894   -0.9839   -0.0973 H   0  0  0  0  0  0  0  0  0  0  0  0
    4.0273   -1.1677   -1.5445 H   0  0  0  0  0  0  0  0  0  0  0  0
    1.7257   -1.8041   -2.1172 H   0  0  0  0  0  0  0  0  0  0  0  0
   -0.9420   -1.3140   -1.3641 H   0  0  0  0  0  0  0  0  0  0  0  0
   -0.3984    1.4833    1.7182 H   0  0  0  0  0  0  0  0  0  0  0  0
    2.5854    1.4884    1.5352 H   0  0  0  0  0  0  0  0  0  0  0  0
   -2.6329    0.3183    2.4707 H   0  0  0  0  0  0  0  0  0  0  0  0
   -5.0879    0.3350    2.6803 H   0  0  0  0  0  0  0  0  0  0  0  0
   -6.5177    0.1326    0.6619 H   0  0  0  0  0  0  0  0  0  0  0  0
   -5.4714   -0.0730   -1.5781 H   0  0  0  0  0  0  0  0  0  0  0  0
   -3.0221   -0.0703   -1.8109 H   0  0  0  0  0  0  0  0  0  0  0  0
  1  2  1  0
  2  3  1  0
  3  4  2  0
  4  5  1  0
  5  6  2  0
  6  7  1  0
  7  8  1  0
  8  9  2  0
  9 10  1  0
 10 11  2  0
  8 12  1  0
 12 13  2  0
 13 14  1  0
 14 15  2  0
 15 16  1  0
 16 17  2  0
 11  3  1  0
 10  6  1  0
 17 12  1  0
  1 18  1  0
  1 19  1  0
  1 20  1  0
  4 21  1  0
  5 22  1  0
  7 23  1  0
  9 24  1  0
 11 25  1  0
 13 26  1  0
 14 27  1  0
 15 28  1  0
 16 29  1  0
 17 30  1  0
M  END
>  <SASA>  (13) 
453.55560678882654

$$$$

     RDKit          3D

 30 32  0  0  0  0  0  0  0  0999 V2000
    5.8247    0.1438    0.1910 C   0  0  0  0  0  0  0  0  0  0  0  0
    4.6505   -0.2467    0.8908 O   0  0  0  0  0  0  0  0  0  0  0  0
    3.4513   -0.0111    0.2718 C   0  0  0  0  0  0  0  0  0  0  0  0
    3.2808    0.5792   -0.9807 C   0  0  0  0  0  0  0  0  0  0  0  0
    2.0032    0.7750   -1.5242 C   0  0  0  0  0  0  0  0  0  0  0  0
    0.9044    0.3566   -0.7672 C   0  0  0  0  0  0  0  0  0  0  0  0
   -0.4424    0.4204   -1.0393 N   0  0  0  0  0  0  0  0  0  0  0  0
   -1.1836   -0.1152   -0.0083 C   0  0  0  0  0  0  0  0  0  0  0  0
   -0.2728   -0.5184    0.9538 C   0  0  0  0  0  0  0  0  0  0  0  0
    1.0388   -0.2333    0.4855 C   0  0  0  0  0  0  0  0  0  0  0  0
    2.3319   -0.4195    1.0103 C   0  0  0  0  0  0  0  0  0  0  0  0
   -2.6461   -0.1700   -0.0203 C   0  0  0  0  0  0  0  0  0  0  0  0
   -3.3697    0.0218    1.1643 C   0  0  0  0  0  0  0  0  0  0  0  0
   -4.7663   -0.0244    1.1636 C   0  0  0  0  0  0  0  0  0  0  0  0
   -5.4555   -0.2674   -0.0221 C   0  0  0  0  0  0  0  0  0  0  0  0
   -4.7494   -0.4665   -1.2063 C   0  0  0  0  0  0  0  0  0  0  0  0
   -3.3524   -0.4186   -1.2056 C   0  0  0  0  0  0  0  0  0  0  0  0
    5.8441    1.2260    0.0253 H   0  0  0  0  0  0  0  0  0  0  0  0
    6.6863   -0.1123    0.8151 H   0  0  0  0  0  0  0  0  0  0  0  0
    5.9229   -0.4037   -0.7522 H   0  0  0  0  0  0  0  0  0  0  0  0
    4.1299    0.9054   -1.5729 H   0  0  0  0  0  0  0  0  0  0  0  0
    1.8795    1.2354   -2.4989 H   0  0  0  0  0  0  0  0  0  0  0  0
   -0.8351    0.8276   -1.8752 H   0  0  0  0  0  0  0  0  0  0  0  0
   -0.5220   -0.9836    1.8986 H   0  0  0  0  0  0  0  0  0  0  0  0
    2.4643   -0.8781    1.9857 H   0  0  0  0  0  0  0  0  0  0  0  0
   -2.8512    0.2210    2.0993 H   0  0  0  0  0  0  0  0  0  0  0  0
   -5.3135    0.1301    2.0898 H   0  0  0  0  0  0  0  0  0  0  0  0
   -6.5417   -0.3060   -0.0221 H   0  0  0  0  0  0  0  0  0  0  0  0
   -5.2851   -0.6665   -2.1306 H   0  0  0  0  0  0  0  0  0  0  0  0
   -2.8257   -0.6010   -2.1385 H   0  0  0  0  0  0  0  0  0  0  0  0
  1  2  1  0
  2  3  1  0
  3  4  2  0
  4  5  1  0
  5  6  2  0
  6  7  1  0
  7  8  1  0
  8  9  2  0
  9 10  1  0
 10 11  2  0
  8 12  1  0
 12 13  2  0
 13 14  1  0
 14 15  2  0
 15 16  1  0
 16 17  2  0
 11  3  1  0
 10  6  1  0
 17 12  1  0
  1 18  1  0
  1 19  1  0
  1 20  1  0
  4 21  1  0
  5 22  1  0
  7 23  1  0
  9 24  1  0
 11 25  1  0
 13 26  1  0
 14 27  1  0
 15 28  1  0
 16 29  1  0
 17 30  1  0
M  END
>  <SASA>  (14) 
453.55560678882654

$$$$

     RDKit          3D

 30 32  0  0  0  0  0  0  0  0999 V2000
    5.4131    0.6103    0.1001 C   0  0  0  0  0  0  0  0  0  0  0  0
    4.8604   -0.6995    0.0759 O   0  0  0  0  0  0  0  0  0  0  0  0
    3.4939   -0.7934    0.0468 C   0  0  0  0  0  0  0  0  0  0  0  0
    3.0055   -2.1015    0.0193 C   0  0  0  0  0  0  0  0  0  0  0  0
    1.6336   -2.3746   -0.0126 C   0  0  0  0  0  0  0  0  0  0  0  0
    0.7637   -1.2810   -0.0171 C   0  0  0  0  0  0  0  0  0  0  0  0
   -0.6109   -1.2379   -0.0441 N   0  0  0  0  0  0  0  0  0  0  0  0
   -1.0673    0.0623   -0.0412 C   0  0  0  0  0  0  0  0  0  0  0  0
    0.0586    0.8671    0.0036 C   0  0  0  0  0  0  0  0  0  0  0  0
    1.2127    0.0357    0.0121 C   0  0  0  0  0  0  0  0  0  0  0  0
    2.6015    0.2855    0.0439 C   0  0  0  0  0  0  0  0  0  0  0  0
   -2.4889    0.4096   -0.0559 C   0  0  0  0  0  0  0  0  0  0  0  0
   -3.4118   -0.3464   -0.7922 C   0  0  0  0  0  0  0  0  0  0  0  0
   -4.7678   -0.0073   -0.7978 C   0  0  0  0  0  0  0  0  0  0  0  0
   -5.2159    1.0916   -0.0684 C   0  0  0  0  0  0  0  0  0  0  0  0
   -4.3091    1.8542    0.6637 C   0  0  0  0  0  0  0  0  0  0  0  0
   -2.9532    1.5161    0.6678 C   0  0  0  0  0  0  0  0  0  0  0  0
    6.5028    0.5127    0.1190 H   0  0  0  0  0  0  0  0  0  0  0  0
    5.1118    1.1494    1.0043 H   0  0  0  0  0  0  0  0  0  0  0  0
    5.1450    1.1690   -0.8027 H   0  0  0  0  0  0  0  0  0  0  0  0
    3.7098   -2.9310    0.0229 H   0  0  0  0  0  0  0  0  0  0  0  0
    1.2698   -3.3962   -0.0333 H   0  0  0  0  0  0  0  0  0  0  0  0
   -1.2050   -2.0540   -0.0433 H   0  0  0  0  0  0  0  0  0  0  0  0
    0.0550    1.9492    0.0171 H   0  0  0  0  0  0  0  0  0  0  0  0
    2.9390    1.3141    0.0659 H   0  0  0  0  0  0  0  0  0  0  0  0
   -3.0857   -1.1944   -1.3885 H   0  0  0  0  0  0  0  0  0  0  0  0
   -5.4725   -0.5979   -1.3776 H   0  0  0  0  0  0  0  0  0  0  0  0
   -6.2701    1.3560   -0.0735 H   0  0  0  0  0  0  0  0  0  0  0  0
   -4.6548    2.7128    1.2334 H   0  0  0  0  0  0  0  0  0  0  0  0
   -2.2632    2.1195    1.2530 H   0  0  0  0  0  0  0  0  0  0  0  0
  1  2  1  0
  2  3  1  0
  3  4  2  0
  4  5  1  0
  5  6  2  0
  6  7  1  0
  7  8  1  0
  8  9  2  0
  9 10  1  0
 10 11  2  0
  8 12  1  0
 12 13  2  0
 13 14  1  0
 14 15  2  0
 15 16  1  0
 16 17  2  0
 11  3  1  0
 10  6  1  0
 17 12  1  0
  1 18  1  0
  1 19  1  0
  1 20  1  0
  4 21  1  0
  5 22  1  0
  7 23  1  0
  9 24  1  0
 11 25  1  0
 13 26  1  0
 14 27  1  0
 15 28  1  0
 16 29  1  0
 17 30  1  0
M  END
>  <SASA>  (15) 
453.55560678882654

$$$$

     RDKit          3D

 30 32  0  0  0  0  0  0  0  0999 V2000
    5.8265   -0.0579    0.2766 C   0  0  0  0  0  0  0  0  0  0  0  0
    4.6933    0.6709   -0.1767 O   0  0  0  0  0  0  0  0  0  0  0  0
    3.4631    0.1157    0.0583 C   0  0  0  0  0  0  0  0  0  0  0  0
    3.2247   -1.0978    0.7041 C   0  0  0  0  0  0  0  0  0  0  0  0
    1.9204   -1.5763    0.8936 C   0  0  0  0  0  0  0  0  0  0  0  0
    0.8656   -0.7950    0.4116 C   0  0  0  0  0  0  0  0  0  0  0  0
   -0.4929   -1.0063    0.4545 N   0  0  0  0  0  0  0  0  0  0  0  0
   -1.1759    0.0275   -0.1488 C   0  0  0  0  0  0  0  0  0  0  0  0
   -0.2150    0.9290   -0.5750 C   0  0  0  0  0  0  0  0  0  0  0  0
    1.0680    0.4201   -0.2347 C   0  0  0  0  0  0  0  0  0  0  0  0
    2.3867    0.8798   -0.4134 C   0  0  0  0  0  0  0  0  0  0  0  0
   -2.6359    0.0748   -0.2398 C   0  0  0  0  0  0  0  0  0  0  0  0
   -3.3114    1.2970   -0.1239 C   0  0  0  0  0  0  0  0  0  0  0  0
   -4.7053    1.3532   -0.2051 C   0  0  0  0  0  0  0  0  0  0  0  0
   -5.4398    0.1873   -0.4077 C   0  0  0  0  0  0  0  0  0  0  0  0
   -4.7815   -1.0341   -0.5314 C   0  0  0  0  0  0  0  0  0  0  0  0
   -3.3872   -1.0903   -0.4485 C   0  0  0  0  0  0  0  0  0  0  0  0
    5.8962   -1.0303   -0.2219 H   0  0  0  0  0  0  0  0  0  0  0  0
    5.8138   -0.1706    1.3657 H   0  0  0  0  0  0  0  0  0  0  0  0
    6.7203    0.5157    0.0125 H   0  0  0  0  0  0  0  0  0  0  0  0
    4.0394   -1.7086    1.0797 H   0  0  0  0  0  0  0  0  0  0  0  0
    1.7438   -2.5209    1.3974 H   0  0  0  0  0  0  0  0  0  0  0  0
   -0.9309   -1.8036    0.8917 H   0  0  0  0  0  0  0  0  0  0  0  0
   -0.4120    1.8594   -1.0916 H   0  0  0  0  0  0  0  0  0  0  0  0
    2.5720    1.8250   -0.9151 H   0  0  0  0  0  0  0  0  0  0  0  0
   -2.7574    2.2179    0.0429 H   0  0  0  0  0  0  0  0  0  0  0  0
   -5.2150    2.3084   -0.1094 H   0  0  0  0  0  0  0  0  0  0  0  0
   -6.5237    0.2314   -0.4736 H   0  0  0  0  0  0  0  0  0  0  0  0
   -5.3522   -1.9437   -0.6999 H   0  0  0  0  0  0  0  0  0  0  0  0
   -2.8976   -2.0526   -0.5722 H   0  0  0  0  0  0  0  0  0  0  0  0
  1  2  1  0
  2  3  1  0
  3  4  2  0
  4  5  1  0
  5  6  2  0
  6  7  1  0
  7  8  1  0
  8  9  2  0
  9 10  1  0
 10 11  2  0
  8 12  1  0
 12 13  2  0
 13 14  1  0
 14 15  2  0
 15 16  1  0
 16 17  2  0
 11  3  1  0
 10  6  1  0
 17 12  1  0
  1 18  1  0
  1 19  1  0
  1 20  1  0
  4 21  1  0
  5 22  1  0
  7 23  1  0
  9 24  1  0
 11 25  1  0
 13 26  1  0
 14 27  1  0
 15 28  1  0
 16 29  1  0
 17 30  1  0
M  END
>  <SASA>  (16) 
453.55560678882654

$$$$

     RDKit          3D

 30 32  0  0  0  0  0  0  0  0999 V2000
   -5.8253    0.2810   -0.0868 C   0  0  0  0  0  0  0  0  0  0  0  0
   -4.6478    0.5501   -0.8363 O   0  0  0  0  0  0  0  0  0  0  0  0
   -3.4506    0.2535   -0.2399 C   0  0  0  0  0  0  0  0  0  0  0  0
   -3.2855   -0.2905    1.0342 C   0  0  0  0  0  0  0  0  0  0  0  0
   -2.0097   -0.5566    1.5511 C   0  0  0  0  0  0  0  0  0  0  0  0
   -0.9069   -0.2567    0.7453 C   0  0  0  0  0  0  0  0  0  0  0  0
    0.4393   -0.4089    0.9832 N   0  0  0  0  0  0  0  0  0  0  0  0
    1.1858    0.0222   -0.0921 C   0  0  0  0  0  0  0  0  0  0  0  0
    0.2779    0.4485   -1.0470 C   0  0  0  0  0  0  0  0  0  0  0  0
   -1.0360    0.2842   -0.5298 C   0  0  0  0  0  0  0  0  0  0  0  0
   -2.3275    0.5428   -1.0273 C   0  0  0  0  0  0  0  0  0  0  0  0
    2.6480   -0.0324   -0.1228 C   0  0  0  0  0  0  0  0  0  0  0  0
    3.3186   -0.3314   -1.3163 C   0  0  0  0  0  0  0  0  0  0  0  0
    4.7142   -0.3902   -1.3561 C   0  0  0  0  0  0  0  0  0  0  0  0
    5.4557   -0.1460   -0.2026 C   0  0  0  0  0  0  0  0  0  0  0  0
    4.8030    0.1590    0.9896 C   0  0  0  0  0  0  0  0  0  0  0  0
    3.4069    0.2161    1.0296 C   0  0  0  0  0  0  0  0  0  0  0  0
   -6.6847    0.5723   -0.6985 H   0  0  0  0  0  0  0  0  0  0  0  0
   -5.9193   -0.7881    0.1307 H   0  0  0  0  0  0  0  0  0  0  0  0
   -5.8538    0.8765    0.8316 H   0  0  0  0  0  0  0  0  0  0  0  0
   -4.1376   -0.5248    1.6642 H   0  0  0  0  0  0  0  0  0  0  0  0
   -1.8902   -0.9803    2.5429 H   0  0  0  0  0  0  0  0  0  0  0  0
    0.8265   -0.8061    1.8264 H   0  0  0  0  0  0  0  0  0  0  0  0
    0.5314    0.8504   -2.0193 H   0  0  0  0  0  0  0  0  0  0  0  0
   -2.4558    0.9653   -2.0195 H   0  0  0  0  0  0  0  0  0  0  0  0
    2.7582   -0.5334   -2.2262 H   0  0  0  0  0  0  0  0  0  0  0  0
    5.2197   -0.6272   -2.2886 H   0  0  0  0  0  0  0  0  0  0  0  0
    6.5412   -0.1891   -0.2342 H   0  0  0  0  0  0  0  0  0  0  0  0
    5.3803    0.3600    1.8884 H   0  0  0  0  0  0  0  0  0  0  0  0
    2.9241    0.4796    1.9668 H   0  0  0  0  0  0  0  0  0  0  0  0
  1  2  1  0
  2  3  1  0
  3  4  2  0
  4  5  1  0
  5  6  2  0
  6  7  1  0
  7  8  1  0
  8  9  2  0
  9 10  1  0
 10 11  2  0
  8 12  1  0
 12 13  2  0
 13 14  1  0
 14 15  2  0
 15 16  1  0
 16 17  2  0
 11  3  1  0
 10  6  1  0
 17 12  1  0
  1 18  1  0
  1 19  1  0
  1 20  1  0
  4 21  1  0
  5 22  1  0
  7 23  1  0
  9 24  1  0
 11 25  1  0
 13 26  1  0
 14 27  1  0
 15 28  1  0
 16 29  1  0
 17 30  1  0
M  END
>  <SASA>  (17) 
453.55560678882654

$$$$

     RDKit          3D

 30 32  0  0  0  0  0  0  0  0999 V2000
    5.8324    0.0940   -0.0132 C   0  0  0  0  0  0  0  0  0  0  0  0
    4.6725    0.8788   -0.2574 O   0  0  0  0  0  0  0  0  0  0  0  0
    3.4599    0.2639   -0.0890 C   0  0  0  0  0  0  0  0  0  0  0  0
    3.2632   -1.0607    0.3026 C   0  0  0  0  0  0  0  0  0  0  0  0
    1.9738   -1.5925    0.4456 C   0  0  0  0  0  0  0  0  0  0  0  0
    0.8903   -0.7490    0.1808 C   0  0  0  0  0  0  0  0  0  0  0  0
   -0.4627   -0.9903    0.2378 N   0  0  0  0  0  0  0  0  0  0  0  0
   -1.1827    0.1322   -0.1095 C   0  0  0  0  0  0  0  0  0  0  0  0
   -0.2512    1.1201   -0.3819 C   0  0  0  0  0  0  0  0  0  0  0  0
    1.0510    0.5766   -0.2093 C   0  0  0  0  0  0  0  0  0  0  0  0
    2.3555    1.0881   -0.3462 C   0  0  0  0  0  0  0  0  0  0  0  0
   -2.6457    0.1695   -0.1257 C   0  0  0  0  0  0  0  0  0  0  0  0
   -3.3945   -0.9420   -0.5375 C   0  0  0  0  0  0  0  0  0  0  0  0
   -4.7916   -0.8963   -0.5468 C   0  0  0  0  0  0  0  0  0  0  0  0
   -5.4553    0.2609   -0.1459 C   0  0  0  0  0  0  0  0  0  0  0  0
   -4.7236    1.3741    0.2608 C   0  0  0  0  0  0  0  0  0  0  0  0
   -3.3270    1.3289    0.2685 C   0  0  0  0  0  0  0  0  0  0  0  0
    5.8884   -0.7538   -0.7039 H   0  0  0  0  0  0  0  0  0  0  0  0
    6.7074    0.7264   -0.1918 H   0  0  0  0  0  0  0  0  0  0  0  0
    5.8710   -0.2402    1.0288 H   0  0  0  0  0  0  0  0  0  0  0  0
    4.1002   -1.7200    0.5089 H   0  0  0  0  0  0  0  0  0  0  0  0
    1.8297   -2.6236    0.7511 H   0  0  0  0  0  0  0  0  0  0  0  0
   -0.8723   -1.8686    0.5199 H   0  0  0  0  0  0  0  0  0  0  0  0
   -0.4808    2.1328   -0.6867 H   0  0  0  0  0  0  0  0  0  0  0  0
    2.5084    2.1195   -0.6500 H   0  0  0  0  0  0  0  0  0  0  0  0
   -2.9019   -1.8488   -0.8777 H   0  0  0  0  0  0  0  0  0  0  0  0
   -5.3607   -1.7625   -0.8743 H   0  0  0  0  0  0  0  0  0  0  0  0
   -6.5415    0.2971   -0.1544 H   0  0  0  0  0  0  0  0  0  0  0  0
   -5.2376    2.2794    0.5731 H   0  0  0  0  0  0  0  0  0  0  0  0
   -2.7747    2.2061    0.5973 H   0  0  0  0  0  0  0  0  0  0  0  0
  1  2  1  0
  2  3  1  0
  3  4  2  0
  4  5  1  0
  5  6  2  0
  6  7  1  0
  7  8  1  0
  8  9  2  0
  9 10  1  0
 10 11  2  0
  8 12  1  0
 12 13  2  0
 13 14  1  0
 14 15  2  0
 15 16  1  0
 16 17  2  0
 11  3  1  0
 10  6  1  0
 17 12  1  0
  1 18  1  0
  1 19  1  0
  1 20  1  0
  4 21  1  0
  5 22  1  0
  7 23  1  0
  9 24  1  0
 11 25  1  0
 13 26  1  0
 14 27  1  0
 15 28  1  0
 16 29  1  0
 17 30  1  0
M  END
>  <SASA>  (18) 
453.55560678882654

$$$$

     RDKit          3D

 30 32  0  0  0  0  0  0  0  0999 V2000
   -5.2579    1.4099    0.2271 C   0  0  0  0  0  0  0  0  0  0  0  0
   -4.9098    0.0692   -0.0938 O   0  0  0  0  0  0  0  0  0  0  0  0
   -3.5732   -0.2283   -0.1395 C   0  0  0  0  0  0  0  0  0  0  0  0
   -3.2882   -1.5566   -0.4635 C   0  0  0  0  0  0  0  0  0  0  0  0
   -1.9734   -2.0267   -0.5528 C   0  0  0  0  0  0  0  0  0  0  0  0
   -0.9482   -1.1101   -0.3049 C   0  0  0  0  0  0  0  0  0  0  0  0
    0.4171   -1.2776   -0.3172 N   0  0  0  0  0  0  0  0  0  0  0  0
    1.0649   -0.0993   -0.0162 C   0  0  0  0  0  0  0  0  0  0  0  0
    0.0732    0.8408    0.2078 C   0  0  0  0  0  0  0  0  0  0  0  0
   -1.1931    0.2199    0.0228 C   0  0  0  0  0  0  0  0  0  0  0  0
   -2.5281    0.6703    0.1067 C   0  0  0  0  0  0  0  0  0  0  0  0
    2.5222    0.0156    0.0530 C   0  0  0  0  0  0  0  0  0  0  0  0
    3.3475   -0.6902   -0.8338 C   0  0  0  0  0  0  0  0  0  0  0  0
    4.7385   -0.5750   -0.7577 C   0  0  0  0  0  0  0  0  0  0  0  0
    5.3196    0.2475    0.2047 C   0  0  0  0  0  0  0  0  0  0  0  0
    4.5114    0.9581    1.0888 C   0  0  0  0  0  0  0  0  0  0  0  0
    3.1207    0.8442    1.0116 C   0  0  0  0  0  0  0  0  0  0  0  0
   -4.8735    2.1084   -0.5235 H   0  0  0  0  0  0  0  0  0  0  0  0
   -4.9135    1.6778    1.2314 H   0  0  0  0  0  0  0  0  0  0  0  0
   -6.3498    1.4823    0.2200 H   0  0  0  0  0  0  0  0  0  0  0  0
   -4.1097   -2.2449   -0.6515 H   0  0  0  0  0  0  0  0  0  0  0  0
   -1.7683   -3.0615   -0.8052 H   0  0  0  0  0  0  0  0  0  0  0  0
    0.8800   -2.1556   -0.5010 H   0  0  0  0  0  0  0  0  0  0  0  0
    0.2404    1.8778    0.4680 H   0  0  0  0  0  0  0  0  0  0  0  0
   -2.7062    1.7073    0.3619 H   0  0  0  0  0  0  0  0  0  0  0  0
    2.9198   -1.3205   -1.6089 H   0  0  0  0  0  0  0  0  0  0  0  0
    5.3673   -1.1228   -1.4549 H   0  0  0  0  0  0  0  0  0  0  0  0
    6.4011    0.3380    0.2632 H   0  0  0  0  0  0  0  0  0  0  0  0
    4.9610    1.6015    1.8405 H   0  0  0  0  0  0  0  0  0  0  0  0
    2.5082    1.4007    1.7170 H   0  0  0  0  0  0  0  0  0  0  0  0
  1  2  1  0
  2  3  1  0
  3  4  2  0
  4  5  1  0
  5  6  2  0
  6  7  1  0
  7  8  1  0
  8  9  2  0
  9 10  1  0
 10 11  2  0
  8 12  1  0
 12 13  2  0
 13 14  1  0
 14 15  2  0
 15 16  1  0
 16 17  2  0
 11  3  1  0
 10  6  1  0
 17 12  1  0
  1 18  1  0
  1 19  1  0
  1 20  1  0
  4 21  1  0
  5 22  1  0
  7 23  1  0
  9 24  1  0
 11 25  1  0
 13 26  1  0
 14 27  1  0
 15 28  1  0
 16 29  1  0
 17 30  1  0
M  END
>  <SASA>  (19) 
453.55560678882654

$$$$

     RDKit          3D

 30 32  0  0  0  0  0  0  0  0999 V2000
    5.8260    0.0990   -0.1931 C   0  0  0  0  0  0  0  0  0  0  0  0
    4.6375    0.3112   -0.9436 O   0  0  0  0  0  0  0  0  0  0  0  0
    3.4483    0.1166   -0.2919 C   0  0  0  0  0  0  0  0  0  0  0  0
    3.3009   -0.2682    1.0410 C   0  0  0  0  0  0  0  0  0  0  0  0
    2.0319   -0.4398    1.6119 C   0  0  0  0  0  0  0  0  0  0  0  0
    0.9175   -0.2130    0.7980 C   0  0  0  0  0  0  0  0  0  0  0  0
   -0.4258   -0.3009    1.0803 N   0  0  0  0  0  0  0  0  0  0  0  0
   -1.1873    0.0083   -0.0259 C   0  0  0  0  0  0  0  0  0  0  0  0
   -0.2928    0.3152   -1.0375 C   0  0  0  0  0  0  0  0  0  0  0  0
    1.0289    0.1733   -0.5337 C   0  0  0  0  0  0  0  0  0  0  0  0
    2.3138    0.3392   -1.0847 C   0  0  0  0  0  0  0  0  0  0  0  0
   -2.6508    0.0085   -0.0136 C   0  0  0  0  0  0  0  0  0  0  0  0
   -3.3695   -0.9405    0.7270 C   0  0  0  0  0  0  0  0  0  0  0  0
   -4.7673   -0.9298    0.7336 C   0  0  0  0  0  0  0  0  0  0  0  0
   -5.4619    0.0287   -0.0008 C   0  0  0  0  0  0  0  0  0  0  0  0
   -4.7604    0.9743   -0.7450 C   0  0  0  0  0  0  0  0  0  0  0  0
   -3.3631    0.9624   -0.7528 C   0  0  0  0  0  0  0  0  0  0  0  0
    5.8917    0.7969    0.6482 H   0  0  0  0  0  0  0  0  0  0  0  0
    6.6771    0.2931   -0.8530 H   0  0  0  0  0  0  0  0  0  0  0  0
    5.8987   -0.9394    0.1466 H   0  0  0  0  0  0  0  0  0  0  0  0
    4.1620   -0.4461    1.6772 H   0  0  0  0  0  0  0  0  0  0  0  0
    1.9261   -0.7388    2.6496 H   0  0  0  0  0  0  0  0  0  0  0  0
   -0.8023   -0.5383    1.9862 H   0  0  0  0  0  0  0  0  0  0  0  0
   -0.5599    0.6032   -2.0460 H   0  0  0  0  0  0  0  0  0  0  0  0
    2.4284    0.6398   -2.1220 H   0  0  0  0  0  0  0  0  0  0  0  0
   -2.8531   -1.7137    1.2895 H   0  0  0  0  0  0  0  0  0  0  0  0
   -5.3130   -1.6748    1.3067 H   0  0  0  0  0  0  0  0  0  0  0  0
   -6.5487    0.0363    0.0030 H   0  0  0  0  0  0  0  0  0  0  0  0
   -5.2986    1.7229   -1.3205 H   0  0  0  0  0  0  0  0  0  0  0  0
   -2.8346    1.7145   -1.3339 H   0  0  0  0  0  0  0  0  0  0  0  0
  1  2  1  0
  2  3  1  0
  3  4  2  0
  4  5  1  0
  5  6  2  0
  6  7  1  0
  7  8  1  0
  8  9  2  0
  9 10  1  0
 10 11  2  0
  8 12  1  0
 12 13  2  0
 13 14  1  0
 14 15  2  0
 15 16  1  0
 16 17  2  0
 11  3  1  0
 10  6  1  0
 17 12  1  0
  1 18  1  0
  1 19  1  0
  1 20  1  0
  4 21  1  0
  5 22  1  0
  7 23  1  0
  9 24  1  0
 11 25  1  0
 13 26  1  0
 14 27  1  0
 15 28  1  0
 16 29  1  0
 17 30  1  0
M  END
>  <SASA>  (20) 
453.55560678882654

$$$$

     RDKit          3D

 30 32  0  0  0  0  0  0  0  0999 V2000
    5.3492    0.1868   -1.0181 C   0  0  0  0  0  0  0  0  0  0  0  0
    4.8689   -0.6427    0.0321 O   0  0  0  0  0  0  0  0  0  0  0  0
    3.5149   -0.6528    0.2416 C   0  0  0  0  0  0  0  0  0  0  0  0
    3.0979   -1.4871    1.2811 C   0  0  0  0  0  0  0  0  0  0  0  0
    1.7481   -1.6142    1.6267 C   0  0  0  0  0  0  0  0  0  0  0  0
    0.8255   -0.8701    0.8864 C   0  0  0  0  0  0  0  0  0  0  0  0
   -0.5435   -0.7904    0.9934 N   0  0  0  0  0  0  0  0  0  0  0  0
   -1.0661    0.0700    0.0524 C   0  0  0  0  0  0  0  0  0  0  0  0
    0.0125    0.5610   -0.6638 C   0  0  0  0  0  0  0  0  0  0  0  0
    1.2032   -0.0269   -0.1541 C   0  0  0  0  0  0  0  0  0  0  0  0
    2.5711    0.0842   -0.4838 C   0  0  0  0  0  0  0  0  0  0  0  0
   -2.4967    0.3567   -0.0602 C   0  0  0  0  0  0  0  0  0  0  0  0
   -2.9348    1.6449   -0.3954 C   0  0  0  0  0  0  0  0  0  0  0  0
   -4.2986    1.9304   -0.5018 C   0  0  0  0  0  0  0  0  0  0  0  0
   -5.2403    0.9289   -0.2782 C   0  0  0  0  0  0  0  0  0  0  0  0
   -4.8195   -0.3580    0.0494 C   0  0  0  0  0  0  0  0  0  0  0  0
   -3.4553   -0.6430    0.1574 C   0  0  0  0  0  0  0  0  0  0  0  0
    4.9503   -0.1315   -1.9870 H   0  0  0  0  0  0  0  0  0  0  0  0
    5.1241    1.2406   -0.8235 H   0  0  0  0  0  0  0  0  0  0  0  0
    6.4377    0.0810   -1.0561 H   0  0  0  0  0  0  0  0  0  0  0  0
    3.8418   -2.0537    1.8376 H   0  0  0  0  0  0  0  0  0  0  0  0
    1.4400   -2.2661    2.4369 H   0  0  0  0  0  0  0  0  0  0  0  0
   -1.0887   -1.2818    1.6863 H   0  0  0  0  0  0  0  0  0  0  0  0
   -0.0479    1.2656   -1.4829 H   0  0  0  0  0  0  0  0  0  0  0  0
    2.8529    0.7430   -1.2956 H   0  0  0  0  0  0  0  0  0  0  0  0
   -2.2163    2.4433   -0.5653 H   0  0  0  0  0  0  0  0  0  0  0  0
   -4.6230    2.9355   -0.7584 H   0  0  0  0  0  0  0  0  0  0  0  0
   -6.3010    1.1503   -0.3633 H   0  0  0  0  0  0  0  0  0  0  0  0
   -5.5527   -1.1433    0.2146 H   0  0  0  0  0  0  0  0  0  0  0  0
   -3.1539   -1.6606    0.3914 H   0  0  0  0  0  0  0  0  0  0  0  0
  1  2  1  0
  2  3  1  0
  3  4  2  0
  4  5  1  0
  5  6  2  0
  6  7  1  0
  7  8  1  0
  8  9  2  0
  9 10  1  0
 10 11  2  0
  8 12  1  0
 12 13  2  0
 13 14  1  0
 14 15  2  0
 15 16  1  0
 16 17  2  0
 11  3  1  0
 10  6  1  0
 17 12  1  0
  1 18  1  0
  1 19  1  0
  1 20  1  0
  4 21  1  0
  5 22  1  0
  7 23  1  0
  9 24  1  0
 11 25  1  0
 13 26  1  0
 14 27  1  0
 15 28  1  0
 16 29  1  0
 17 30  1  0
M  END
>  <SASA>  (21) 
453.55560678882654

$$$$

     RDKit          3D

 30 32  0  0  0  0  0  0  0  0999 V2000
   -5.7203   -0.8404   -0.6587 C   0  0  0  0  0  0  0  0  0  0  0  0
   -4.4318   -1.3524   -0.9723 O   0  0  0  0  0  0  0  0  0  0  0  0
   -3.3541   -0.6736   -0.4677 C   0  0  0  0  0  0  0  0  0  0  0  0
   -3.4094    0.4717    0.3271 C   0  0  0  0  0  0  0  0  0  0  0  0
   -2.2405    1.0903    0.7928 C   0  0  0  0  0  0  0  0  0  0  0  0
   -1.0158    0.5199    0.4319 C   0  0  0  0  0  0  0  0  0  0  0  0
    0.2701    0.9010    0.7374 N   0  0  0  0  0  0  0  0  0  0  0  0
    1.1900    0.0483    0.1664 C   0  0  0  0  0  0  0  0  0  0  0  0
    0.4580   -0.9122   -0.5115 C   0  0  0  0  0  0  0  0  0  0  0  0
   -0.9250   -0.6222   -0.3570 C   0  0  0  0  0  0  0  0  0  0  0  0
   -2.1126   -1.2256   -0.8128 C   0  0  0  0  0  0  0  0  0  0  0  0
    2.6355    0.2048    0.3333 C   0  0  0  0  0  0  0  0  0  0  0  0
    3.2265    1.4754    0.3783 C   0  0  0  0  0  0  0  0  0  0  0  0
    4.6081    1.6135    0.5404 C   0  0  0  0  0  0  0  0  0  0  0  0
    5.4139    0.4834    0.6583 C   0  0  0  0  0  0  0  0  0  0  0  0
    4.8404   -0.7850    0.6103 C   0  0  0  0  0  0  0  0  0  0  0  0
    3.4595   -0.9229    0.4465 C   0  0  0  0  0  0  0  0  0  0  0  0
   -5.8537    0.1685   -1.0630 H   0  0  0  0  0  0  0  0  0  0  0  0
   -6.4625   -1.4894   -1.1335 H   0  0  0  0  0  0  0  0  0  0  0  0
   -5.9020   -0.8621    0.4209 H   0  0  0  0  0  0  0  0  0  0  0  0
   -4.3569    0.9191    0.6098 H   0  0  0  0  0  0  0  0  0  0  0  0
   -2.2924    1.9806    1.4109 H   0  0  0  0  0  0  0  0  0  0  0  0
    0.5060    1.6889    1.3224 H   0  0  0  0  0  0  0  0  0  0  0  0
    0.8743   -1.7377   -1.0741 H   0  0  0  0  0  0  0  0  0  0  0  0
   -2.0694   -2.1178   -1.4306 H   0  0  0  0  0  0  0  0  0  0  0  0
    2.6243    2.3728    0.2649 H   0  0  0  0  0  0  0  0  0  0  0  0
    5.0550    2.6039    0.5673 H   0  0  0  0  0  0  0  0  0  0  0  0
    6.4882    0.5905    0.7829 H   0  0  0  0  0  0  0  0  0  0  0  0
    5.4658   -1.6693    0.7005 H   0  0  0  0  0  0  0  0  0  0  0  0
    3.0309   -1.9220    0.4198 H   0  0  0  0  0  0  0  0  0  0  0  0
  1  2  1  0
  2  3  1  0
  3  4  2  0
  4  5  1  0
  5  6  2  0
  6  7  1  0
  7  8  1  0
  8  9  2  0
  9 10  1  0
 10 11  2  0
  8 12  1  0
 12 13  2  0
 13 14  1  0
 14 15  2  0
 15 16  1  0
 16 17  2  0
 11  3  1  0
 10  6  1  0
 17 12  1  0
  1 18  1  0
  1 19  1  0
  1 20  1  0
  4 21  1  0
  5 22  1  0
  7 23  1  0
  9 24  1  0
 11 25  1  0
 13 26  1  0
 14 27  1  0
 15 28  1  0
 16 29  1  0
 17 30  1  0
M  END
>  <SASA>  (22) 
453.55560678882654

$$$$

     RDKit          3D

 30 32  0  0  0  0  0  0  0  0999 V2000
   -5.4362    0.3586    0.0670 C   0  0  0  0  0  0  0  0  0  0  0  0
   -4.8145   -0.8663    0.4343 O   0  0  0  0  0  0  0  0  0  0  0  0
   -3.4454   -0.9003    0.3963 C   0  0  0  0  0  0  0  0  0  0  0  0
   -2.8881   -2.1276    0.7618 C   0  0  0  0  0  0  0  0  0  0  0  0
   -1.5041   -2.3324    0.7766 C   0  0  0  0  0  0  0  0  0  0  0  0
   -0.6941   -1.2550    0.4081 C   0  0  0  0  0  0  0  0  0  0  0  0
    0.6758   -1.1580    0.3294 N   0  0  0  0  0  0  0  0  0  0  0  0
    1.0619    0.0984   -0.0843 C   0  0  0  0  0  0  0  0  0  0  0  0
   -0.1048    0.8235   -0.2587 C   0  0  0  0  0  0  0  0  0  0  0  0
   -1.2125   -0.0172    0.0404 C   0  0  0  0  0  0  0  0  0  0  0  0
   -2.6121    0.1647    0.0333 C   0  0  0  0  0  0  0  0  0  0  0  0
    2.4625    0.4902   -0.2469 C   0  0  0  0  0  0  0  0  0  0  0  0
    3.4151   -0.4133   -0.7388 C   0  0  0  0  0  0  0  0  0  0  0  0
    4.7508   -0.0295   -0.8884 C   0  0  0  0  0  0  0  0  0  0  0  0
    5.1488    1.2615   -0.5489 C   0  0  0  0  0  0  0  0  0  0  0  0
    4.2119    2.1707   -0.0636 C   0  0  0  0  0  0  0  0  0  0  0  0
    2.8762    1.7875    0.0842 C   0  0  0  0  0  0  0  0  0  0  0  0
   -6.5188    0.2208    0.1467 H   0  0  0  0  0  0  0  0  0  0  0  0
   -5.2100    0.6206   -0.9719 H   0  0  0  0  0  0  0  0  0  0  0  0
   -5.1526    1.1659    0.7504 H   0  0  0  0  0  0  0  0  0  0  0  0
   -3.5468   -2.9469    1.0427 H   0  0  0  0  0  0  0  0  0  0  0  0
   -1.0864   -3.2915    1.0632 H   0  0  0  0  0  0  0  0  0  0  0  0
    1.3126   -1.9045    0.5661 H   0  0  0  0  0  0  0  0  0  0  0  0
   -0.1590    1.8550   -0.5816 H   0  0  0  0  0  0  0  0  0  0  0  0
   -3.0039    1.1321   -0.2551 H   0  0  0  0  0  0  0  0  0  0  0  0
    3.1272   -1.4191   -1.0331 H   0  0  0  0  0  0  0  0  0  0  0  0
    5.4786   -0.7375   -1.2765 H   0  0  0  0  0  0  0  0  0  0  0  0
    6.1872    1.5604   -0.6662 H   0  0  0  0  0  0  0  0  0  0  0  0
    4.5184    3.1792    0.2015 H   0  0  0  0  0  0  0  0  0  0  0  0
    2.1625    2.5099    0.4731 H   0  0  0  0  0  0  0  0  0  0  0  0
  1  2  1  0
  2  3  1  0
  3  4  2  0
  4  5  1  0
  5  6  2  0
  6  7  1  0
  7  8  1  0
  8  9  2  0
  9 10  1  0
 10 11  2  0
  8 12  1  0
 12 13  2  0
 13 14  1  0
 14 15  2  0
 15 16  1  0
 16 17  2  0
 11  3  1  0
 10  6  1  0
 17 12  1  0
  1 18  1  0
  1 19  1  0
  1 20  1  0
  4 21  1  0
  5 22  1  0
  7 23  1  0
  9 24  1  0
 11 25  1  0
 13 26  1  0
 14 27  1  0
 15 28  1  0
 16 29  1  0
 17 30  1  0
M  END
>  <SASA>  (23) 
453.55560678882654

$$$$

     RDKit          3D

 30 32  0  0  0  0  0  0  0  0999 V2000
    5.8238   -0.1019    0.3980 C   0  0  0  0  0  0  0  0  0  0  0  0
    4.6630    0.6001    0.8228 O   0  0  0  0  0  0  0  0  0  0  0  0
    3.4542    0.1183    0.3944 C   0  0  0  0  0  0  0  0  0  0  0  0
    3.2621   -0.9996   -0.4180 C   0  0  0  0  0  0  0  0  0  0  0  0
    1.9764   -1.4085   -0.7995 C   0  0  0  0  0  0  0  0  0  0  0  0
    0.8919   -0.6559   -0.3380 C   0  0  0  0  0  0  0  0  0  0  0  0
   -0.4583   -0.8172   -0.5455 N   0  0  0  0  0  0  0  0  0  0  0  0
   -1.1807    0.1634    0.0995 C   0  0  0  0  0  0  0  0  0  0  0  0
   -0.2543    0.9629    0.7476 C   0  0  0  0  0  0  0  0  0  0  0  0
    1.0479    0.4622    0.4747 C   0  0  0  0  0  0  0  0  0  0  0  0
    2.3488    0.8535    0.8444 C   0  0  0  0  0  0  0  0  0  0  0  0
   -2.6421    0.2336    0.0627 C   0  0  0  0  0  0  0  0  0  0  0  0
   -3.3552   -0.1067   -1.0955 C   0  0  0  0  0  0  0  0  0  0  0  0
   -4.7512   -0.0382   -1.1189 C   0  0  0  0  0  0  0  0  0  0  0  0
   -5.4494    0.3720    0.0145 C   0  0  0  0  0  0  0  0  0  0  0  0
   -4.7533    0.7177    1.1703 C   0  0  0  0  0  0  0  0  0  0  0  0
   -3.3577    0.6509    1.1930 C   0  0  0  0  0  0  0  0  0  0  0  0
    5.8236   -1.1301    0.7748 H   0  0  0  0  0  0  0  0  0  0  0  0
    5.9224   -0.0792   -0.6923 H   0  0  0  0  0  0  0  0  0  0  0  0
    6.6955    0.4067    0.8210 H   0  0  0  0  0  0  0  0  0  0  0  0
    4.1000   -1.5871   -0.7796 H   0  0  0  0  0  0  0  0  0  0  0  0
    1.8359   -2.2795   -1.4312 H   0  0  0  0  0  0  0  0  0  0  0  0
   -0.8656   -1.5694   -1.0812 H   0  0  0  0  0  0  0  0  0  0  0  0
   -0.4867    1.8308    1.3509 H   0  0  0  0  0  0  0  0  0  0  0  0
    2.4980    1.7230    1.4777 H   0  0  0  0  0  0  0  0  0  0  0  0
   -2.8343   -0.4070   -2.0007 H   0  0  0  0  0  0  0  0  0  0  0  0
   -5.2921   -0.2986   -2.0250 H   0  0  0  0  0  0  0  0  0  0  0  0
   -6.5347    0.4267   -0.0040 H   0  0  0  0  0  0  0  0  0  0  0  0
   -5.2943    1.0397    2.0562 H   0  0  0  0  0  0  0  0  0  0  0  0
   -2.8338    0.9173    2.1080 H   0  0  0  0  0  0  0  0  0  0  0  0
  1  2  1  0
  2  3  1  0
  3  4  2  0
  4  5  1  0
  5  6  2  0
  6  7  1  0
  7  8  1  0
  8  9  2  0
  9 10  1  0
 10 11  2  0
  8 12  1  0
 12 13  2  0
 13 14  1  0
 14 15  2  0
 15 16  1  0
 16 17  2  0
 11  3  1  0
 10  6  1  0
 17 12  1  0
  1 18  1  0
  1 19  1  0
  1 20  1  0
  4 21  1  0
  5 22  1  0
  7 23  1  0
  9 24  1  0
 11 25  1  0
 13 26  1  0
 14 27  1  0
 15 28  1  0
 16 29  1  0
 17 30  1  0
M  END
>  <SASA>  (24) 
453.55560678882654

$$$$

     RDKit          3D

 30 32  0  0  0  0  0  0  0  0999 V2000
    5.3625   -0.1902    1.0027 C   0  0  0  0  0  0  0  0  0  0  0  0
    4.9073   -0.3489   -0.3349 O   0  0  0  0  0  0  0  0  0  0  0  0
    3.5515   -0.3357   -0.5320 C   0  0  0  0  0  0  0  0  0  0  0  0
    3.1601   -0.4955   -1.8630 C   0  0  0  0  0  0  0  0  0  0  0  0
    1.8120   -0.5053   -2.2375 C   0  0  0  0  0  0  0  0  0  0  0  0
    0.8653   -0.3480   -1.2215 C   0  0  0  0  0  0  0  0  0  0  0  0
   -0.5085   -0.3169   -1.2825 N   0  0  0  0  0  0  0  0  0  0  0  0
   -1.0690   -0.1406   -0.0330 C   0  0  0  0  0  0  0  0  0  0  0  0
    0.0038   -0.0584    0.8443 C   0  0  0  0  0  0  0  0  0  0  0  0
    1.2166   -0.1867    0.1128 C   0  0  0  0  0  0  0  0  0  0  0  0
    2.5828   -0.1800    0.4668 C   0  0  0  0  0  0  0  0  0  0  0  0
   -2.5203   -0.0677    0.2133 C   0  0  0  0  0  0  0  0  0  0  0  0
   -3.0102    0.1133    1.5166 C   0  0  0  0  0  0  0  0  0  0  0  0
   -4.3834    0.1853    1.7733 C   0  0  0  0  0  0  0  0  0  0  0  0
   -5.2948    0.0773    0.7284 C   0  0  0  0  0  0  0  0  0  0  0  0
   -4.8324   -0.1025   -0.5713 C   0  0  0  0  0  0  0  0  0  0  0  0
   -3.4579   -0.1743   -0.8264 C   0  0  0  0  0  0  0  0  0  0  0  0
    5.0130   -1.0102    1.6389 H   0  0  0  0  0  0  0  0  0  0  0  0
    6.4562   -0.2230    0.9895 H   0  0  0  0  0  0  0  0  0  0  0  0
    5.0639    0.7818    1.4090 H   0  0  0  0  0  0  0  0  0  0  0  0
    3.9228   -0.6155   -2.6298 H   0  0  0  0  0  0  0  0  0  0  0  0
    1.5235   -0.6304   -3.2755 H   0  0  0  0  0  0  0  0  0  0  0  0
   -1.0270   -0.4125   -2.1416 H   0  0  0  0  0  0  0  0  0  0  0  0
   -0.0647    0.0810    1.9147 H   0  0  0  0  0  0  0  0  0  0  0  0
    2.8439   -0.0535    1.5099 H   0  0  0  0  0  0  0  0  0  0  0  0
   -2.3294    0.2018    2.3589 H   0  0  0  0  0  0  0  0  0  0  0  0
   -4.7367    0.3258    2.7916 H   0  0  0  0  0  0  0  0  0  0  0  0
   -6.3618    0.1331    0.9265 H   0  0  0  0  0  0  0  0  0  0  0  0
   -5.5409   -0.1874   -1.3914 H   0  0  0  0  0  0  0  0  0  0  0  0
   -3.1484   -0.3151   -1.8568 H   0  0  0  0  0  0  0  0  0  0  0  0
  1  2  1  0
  2  3  1  0
  3  4  2  0
  4  5  1  0
  5  6  2  0
  6  7  1  0
  7  8  1  0
  8  9  2  0
  9 10  1  0
 10 11  2  0
  8 12  1  0
 12 13  2  0
 13 14  1  0
 14 15  2  0
 15 16  1  0
 16 17  2  0
 11  3  1  0
 10  6  1  0
 17 12  1  0
  1 18  1  0
  1 19  1  0
  1 20  1  0
  4 21  1  0
  5 22  1  0
  7 23  1  0
  9 24  1  0
 11 25  1  0
 13 26  1  0
 14 27  1  0
 15 28  1  0
 16 29  1  0
 17 30  1  0
M  END
>  <SASA>  (25) 
453.55560678882654

$$$$

     RDKit          3D

 30 32  0  0  0  0  0  0  0  0999 V2000
    5.8142   -0.3662   -0.3631 C   0  0  0  0  0  0  0  0  0  0  0  0
    4.7335    0.1399    0.4093 O   0  0  0  0  0  0  0  0  0  0  0  0
    3.4688   -0.1024   -0.0583 C   0  0  0  0  0  0  0  0  0  0  0  0
    3.1484   -0.8026   -1.2217 C   0  0  0  0  0  0  0  0  0  0  0  0
    1.8151   -0.9946   -1.6106 C   0  0  0  0  0  0  0  0  0  0  0  0
    0.8161   -0.4585   -0.7919 C   0  0  0  0  0  0  0  0  0  0  0  0
   -0.5532   -0.4903   -0.9185 N   0  0  0  0  0  0  0  0  0  0  0  0
   -1.1640    0.1734    0.1235 C   0  0  0  0  0  0  0  0  0  0  0  0
   -0.1445    0.6277    0.9431 C   0  0  0  0  0  0  0  0  0  0  0  0
    1.1006    0.2428    0.3752 C   0  0  0  0  0  0  0  0  0  0  0  0
    2.4471    0.4228    0.7451 C   0  0  0  0  0  0  0  0  0  0  0  0
   -2.6170    0.2895    0.2542 C   0  0  0  0  0  0  0  0  0  0  0  0
   -3.2182    0.2439    1.5192 C   0  0  0  0  0  0  0  0  0  0  0  0
   -4.6049    0.3498    1.6553 C   0  0  0  0  0  0  0  0  0  0  0  0
   -5.4065    0.5070    0.5272 C   0  0  0  0  0  0  0  0  0  0  0  0
   -4.8224    0.5607   -0.7364 C   0  0  0  0  0  0  0  0  0  0  0  0
   -3.4354    0.4532   -0.8724 C   0  0  0  0  0  0  0  0  0  0  0  0
    6.7445   -0.0886    0.1416 H   0  0  0  0  0  0  0  0  0  0  0  0
    5.7806   -1.4592   -0.4208 H   0  0  0  0  0  0  0  0  0  0  0  0
    5.8307    0.0832   -1.3615 H   0  0  0  0  0  0  0  0  0  0  0  0
    3.9194   -1.2204   -1.8612 H   0  0  0  0  0  0  0  0  0  0  0  0
    1.5747   -1.5410   -2.5168 H   0  0  0  0  0  0  0  0  0  0  0  0
   -1.0446   -0.9588   -1.6653 H   0  0  0  0  0  0  0  0  0  0  0  0
   -0.2776    1.1920    1.8569 H   0  0  0  0  0  0  0  0  0  0  0  0
    2.6962    0.9670    1.6513 H   0  0  0  0  0  0  0  0  0  0  0  0
   -2.6111    0.1135    2.4120 H   0  0  0  0  0  0  0  0  0  0  0  0
   -5.0565    0.3088    2.6430 H   0  0  0  0  0  0  0  0  0  0  0  0
   -6.4848    0.5921    0.6333 H   0  0  0  0  0  0  0  0  0  0  0  0
   -5.4454    0.6937   -1.6170 H   0  0  0  0  0  0  0  0  0  0  0  0
   -3.0039    0.5221   -1.8674 H   0  0  0  0  0  0  0  0  0  0  0  0
  1  2  1  0
  2  3  1  0
  3  4  2  0
  4  5  1  0
  5  6  2  0
  6  7  1  0
  7  8  1  0
  8  9  2  0
  9 10  1  0
 10 11  2  0
  8 12  1  0
 12 13  2  0
 13 14  1  0
 14 15  2  0
 15 16  1  0
 16 17  2  0
 11  3  1  0
 10  6  1  0
 17 12  1  0
  1 18  1  0
  1 19  1  0
  1 20  1  0
  4 21  1  0
  5 22  1  0
  7 23  1  0
  9 24  1  0
 11 25  1  0
 13 26  1  0
 14 27  1  0
 15 28  1  0
 16 29  1  0
 17 30  1  0
M  END
>  <SASA>  (26) 
453.55560678882654

$$$$

     RDKit          3D

 30 32  0  0  0  0  0  0  0  0999 V2000
    5.7995   -0.4919    0.1887 C   0  0  0  0  0  0  0  0  0  0  0  0
    4.5764   -0.7704    0.8573 O   0  0  0  0  0  0  0  0  0  0  0  0
    3.4223   -0.3873    0.2262 C   0  0  0  0  0  0  0  0  0  0  0  0
    3.3416    0.2483   -1.0132 C   0  0  0  0  0  0  0  0  0  0  0  0
    2.1039    0.5983   -1.5712 C   0  0  0  0  0  0  0  0  0  0  0  0
    0.9517    0.2892   -0.8415 C   0  0  0  0  0  0  0  0  0  0  0  0
   -0.3745    0.5075   -1.1339 N   0  0  0  0  0  0  0  0  0  0  0  0
   -1.1890    0.0420   -0.1243 C   0  0  0  0  0  0  0  0  0  0  0  0
   -0.3474   -0.5011    0.8320 C   0  0  0  0  0  0  0  0  0  0  0  0
    0.9965   -0.3455    0.3955 C   0  0  0  0  0  0  0  0  0  0  0  0
    2.2510   -0.6872    0.9355 C   0  0  0  0  0  0  0  0  0  0  0  0
   -2.6491    0.1305   -0.1711 C   0  0  0  0  0  0  0  0  0  0  0  0
   -3.4364   -0.9013    0.3575 C   0  0  0  0  0  0  0  0  0  0  0  0
   -4.8312   -0.8291    0.3145 C   0  0  0  0  0  0  0  0  0  0  0  0
   -5.4551    0.2788   -0.2541 C   0  0  0  0  0  0  0  0  0  0  0  0
   -4.6855    1.3153   -0.7775 C   0  0  0  0  0  0  0  0  0  0  0  0
   -3.2902    1.2421   -0.7359 C   0  0  0  0  0  0  0  0  0  0  0  0
    5.8567   -1.0224   -0.7674 H   0  0  0  0  0  0  0  0  0  0  0  0
    6.6159   -0.8559    0.8200 H   0  0  0  0  0  0  0  0  0  0  0  0
    5.9393    0.5857    0.0532 H   0  0  0  0  0  0  0  0  0  0  0  0
    4.2324    0.4911   -1.5837 H   0  0  0  0  0  0  0  0  0  0  0  0
    2.0500    1.0920   -2.5360 H   0  0  0  0  0  0  0  0  0  0  0  0
   -0.7064    0.9322   -1.9872 H   0  0  0  0  0  0  0  0  0  0  0  0
   -0.6640   -0.9566    1.7612 H   0  0  0  0  0  0  0  0  0  0  0  0
    2.3136   -1.1829    1.8998 H   0  0  0  0  0  0  0  0  0  0  0  0
   -2.9691   -1.7787    0.7984 H   0  0  0  0  0  0  0  0  0  0  0  0
   -5.4281   -1.6392    0.7252 H   0  0  0  0  0  0  0  0  0  0  0  0
   -6.5400    0.3362   -0.2850 H   0  0  0  0  0  0  0  0  0  0  0  0
   -5.1706    2.1853   -1.2123 H   0  0  0  0  0  0  0  0  0  0  0  0
   -2.7141    2.0751   -1.1297 H   0  0  0  0  0  0  0  0  0  0  0  0
  1  2  1  0
  2  3  1  0
  3  4  2  0
  4  5  1  0
  5  6  2  0
  6  7  1  0
  7  8  1  0
  8  9  2  0
  9 10  1  0
 10 11  2  0
  8 12  1  0
 12 13  2  0
 13 14  1  0
 14 15  2  0
 15 16  1  0
 16 17  2  0
 11  3  1  0
 10  6  1  0
 17 12  1  0
  1 18  1  0
  1 19  1  0
  1 20  1  0
  4 21  1  0
  5 22  1  0
  7 23  1  0
  9 24  1  0
 11 25  1  0
 13 26  1  0
 14 27  1  0
 15 28  1  0
 16 29  1  0
 17 30  1  0
M  END
>  <SASA>  (27) 
453.55560678882654

$$$$

     RDKit          3D

 30 32  0  0  0  0  0  0  0  0999 V2000
   -5.6954   -0.7703    0.9499 C   0  0  0  0  0  0  0  0  0  0  0  0
   -4.3968   -0.9762    1.4904 O   0  0  0  0  0  0  0  0  0  0  0  0
   -3.3356   -0.5480    0.7372 C   0  0  0  0  0  0  0  0  0  0  0  0
   -3.4164    0.0686   -0.5117 C   0  0  0  0  0  0  0  0  0  0  0  0
   -2.2627    0.4692   -1.2005 C   0  0  0  0  0  0  0  0  0  0  0  0
   -1.0268    0.2304   -0.5914 C   0  0  0  0  0  0  0  0  0  0  0  0
    0.2491    0.5085   -1.0236 N   0  0  0  0  0  0  0  0  0  0  0  0
    1.1866    0.1019   -0.0989 C   0  0  0  0  0  0  0  0  0  0  0  0
    0.4776   -0.4649    0.9469 C   0  0  0  0  0  0  0  0  0  0  0  0
   -0.9105   -0.3836    0.6514 C   0  0  0  0  0  0  0  0  0  0  0  0
   -2.0832   -0.7771    1.3239 C   0  0  0  0  0  0  0  0  0  0  0  0
    2.6275    0.2615   -0.2992 C   0  0  0  0  0  0  0  0  0  0  0  0
    3.5169   -0.7206    0.1571 C   0  0  0  0  0  0  0  0  0  0  0  0
    4.8943   -0.5805   -0.0324 C   0  0  0  0  0  0  0  0  0  0  0  0
    5.3986    0.5465   -0.6770 C   0  0  0  0  0  0  0  0  0  0  0  0
    4.5270    1.5343   -1.1301 C   0  0  0  0  0  0  0  0  0  0  0  0
    3.1491    1.3931   -0.9419 C   0  0  0  0  0  0  0  0  0  0  0  0
   -5.9031    0.2964    0.8162 H   0  0  0  0  0  0  0  0  0  0  0  0
   -5.8244   -1.3201    0.0117 H   0  0  0  0  0  0  0  0  0  0  0  0
   -6.4222   -1.1629    1.6676 H   0  0  0  0  0  0  0  0  0  0  0  0
   -4.3728    0.2569   -0.9890 H   0  0  0  0  0  0  0  0  0  0  0  0
   -2.3345    0.9477   -2.1717 H   0  0  0  0  0  0  0  0  0  0  0  0
    0.4685    0.9338   -1.9122 H   0  0  0  0  0  0  0  0  0  0  0  0
    0.9117   -0.8875    1.8436 H   0  0  0  0  0  0  0  0  0  0  0  0
   -2.0200   -1.2580    2.2956 H   0  0  0  0  0  0  0  0  0  0  0  0
    3.1433   -1.6121    0.6554 H   0  0  0  0  0  0  0  0  0  0  0  0
    5.5711   -1.3527    0.3238 H   0  0  0  0  0  0  0  0  0  0  0  0
    6.4701    0.6568   -0.8220 H   0  0  0  0  0  0  0  0  0  0  0  0
    4.9194    2.4193   -1.6242 H   0  0  0  0  0  0  0  0  0  0  0  0
    2.4936    2.1895   -1.2838 H   0  0  0  0  0  0  0  0  0  0  0  0
  1  2  1  0
  2  3  1  0
  3  4  2  0
  4  5  1  0
  5  6  2  0
  6  7  1  0
  7  8  1  0
  8  9  2  0
  9 10  1  0
 10 11  2  0
  8 12  1  0
 12 13  2  0
 13 14  1  0
 14 15  2  0
 15 16  1  0
 16 17  2  0
 11  3  1  0
 10  6  1  0
 17 12  1  0
  1 18  1  0
  1 19  1  0
  1 20  1  0
  4 21  1  0
  5 22  1  0
  7 23  1  0
  9 24  1  0
 11 25  1  0
 13 26  1  0
 14 27  1  0
 15 28  1  0
 16 29  1  0
 17 30  1  0
M  END
>  <SASA>  (28) 
453.55560678882654

$$$$

     RDKit          3D

 30 32  0  0  0  0  0  0  0  0999 V2000
    5.8167    0.3005    0.4232 C   0  0  0  0  0  0  0  0  0  0  0  0
    4.6120    0.5838    1.1227 O   0  0  0  0  0  0  0  0  0  0  0  0
    3.4380    0.2698    0.4902 C   0  0  0  0  0  0  0  0  0  0  0  0
    3.3207   -0.3045   -0.7759 C   0  0  0  0  0  0  0  0  0  0  0  0
    2.0651   -0.5864   -1.3325 C   0  0  0  0  0  0  0  0  0  0  0  0
    0.9330   -0.2708   -0.5747 C   0  0  0  0  0  0  0  0  0  0  0  0
   -0.4033   -0.4325   -0.8579 N   0  0  0  0  0  0  0  0  0  0  0  0
   -1.1894    0.0216    0.1790 C   0  0  0  0  0  0  0  0  0  0  0  0
   -0.3179    0.4728    1.1560 C   0  0  0  0  0  0  0  0  0  0  0  0
    1.0144    0.3002    0.6911 C   0  0  0  0  0  0  0  0  0  0  0  0
    2.2863    0.5742    1.2291 C   0  0  0  0  0  0  0  0  0  0  0  0
   -2.6516   -0.0365    0.1576 C   0  0  0  0  0  0  0  0  0  0  0  0
   -3.3648   -0.3094    1.3326 C   0  0  0  0  0  0  0  0  0  0  0  0
   -4.7608   -0.3713    1.3228 C   0  0  0  0  0  0  0  0  0  0  0  0
   -5.4602   -0.1564    0.1376 C   0  0  0  0  0  0  0  0  0  0  0  0
   -4.7650    0.1224   -1.0369 C   0  0  0  0  0  0  0  0  0  0  0  0
   -3.3685    0.1826   -1.0272 C   0  0  0  0  0  0  0  0  0  0  0  0
    5.9208   -0.7731    0.2345 H   0  0  0  0  0  0  0  0  0  0  0  0
    5.8774    0.8744   -0.5074 H   0  0  0  0  0  0  0  0  0  0  0  0
    6.6525    0.6087    1.0587 H   0  0  0  0  0  0  0  0  0  0  0  0
    4.1957   -0.5511   -1.3687 H   0  0  0  0  0  0  0  0  0  0  0  0
    1.9828   -1.0337   -2.3177 H   0  0  0  0  0  0  0  0  0  0  0  0
   -0.7587   -0.8506   -1.7050 H   0  0  0  0  0  0  0  0  0  0  0  0
   -0.6075    0.8968    2.1087 H   0  0  0  0  0  0  0  0  0  0  0  0
    2.3774    1.0203    2.2150 H   0  0  0  0  0  0  0  0  0  0  0  0
   -2.8376   -0.4883    2.2668 H   0  0  0  0  0  0  0  0  0  0  0  0
   -5.2995   -0.5878    2.2416 H   0  0  0  0  0  0  0  0  0  0  0  0
   -6.5461   -0.2019    0.1307 H   0  0  0  0  0  0  0  0  0  0  0  0
   -5.3095    0.3005   -1.9605 H   0  0  0  0  0  0  0  0  0  0  0  0
   -2.8524    0.4254   -1.9522 H   0  0  0  0  0  0  0  0  0  0  0  0
  1  2  1  0
  2  3  1  0
  3  4  2  0
  4  5  1  0
  5  6  2  0
  6  7  1  0
  7  8  1  0
  8  9  2  0
  9 10  1  0
 10 11  2  0
  8 12  1  0
 12 13  2  0
 13 14  1  0
 14 15  2  0
 15 16  1  0
 16 17  2  0
 11  3  1  0
 10  6  1  0
 17 12  1  0
  1 18  1  0
  1 19  1  0
  1 20  1  0
  4 21  1  0
  5 22  1  0
  7 23  1  0
  9 24  1  0
 11 25  1  0
 13 26  1  0
 14 27  1  0
 15 28  1  0
 16 29  1  0
 17 30  1  0
M  END
>  <SASA>  (29) 
453.55560678882654

$$$$

     RDKit          3D

 30 32  0  0  0  0  0  0  0  0999 V2000
    5.8198    0.3086    0.2337 C   0  0  0  0  0  0  0  0  0  0  0  0
    4.6233    1.0649    0.3643 O   0  0  0  0  0  0  0  0  0  0  0  0
    3.4422    0.3951    0.1824 C   0  0  0  0  0  0  0  0  0  0  0  0
    3.3102   -0.9602   -0.1214 C   0  0  0  0  0  0  0  0  0  0  0  0
    2.0484   -1.5483   -0.2876 C   0  0  0  0  0  0  0  0  0  0  0  0
    0.9251   -0.7291   -0.1370 C   0  0  0  0  0  0  0  0  0  0  0  0
   -0.4143   -1.0240   -0.2417 N   0  0  0  0  0  0  0  0  0  0  0  0
   -1.1884    0.0927   -0.0115 C   0  0  0  0  0  0  0  0  0  0  0  0
   -0.3057    1.1312    0.2334 C   0  0  0  0  0  0  0  0  0  0  0  0
    1.0211    0.6257    0.1636 C   0  0  0  0  0  0  0  0  0  0  0  0
    2.2990    1.1937    0.3259 C   0  0  0  0  0  0  0  0  0  0  0  0
   -2.6508    0.0766   -0.0686 C   0  0  0  0  0  0  0  0  0  0  0  0
   -3.3818   -1.0301    0.3858 C   0  0  0  0  0  0  0  0  0  0  0  0
   -4.7782   -1.0360    0.3244 C   0  0  0  0  0  0  0  0  0  0  0  0
   -5.4593    0.0646   -0.1907 C   0  0  0  0  0  0  0  0  0  0  0  0
   -4.7457    1.1728   -0.6410 C   0  0  0  0  0  0  0  0  0  0  0  0
   -3.3498    1.1791   -0.5780 C   0  0  0  0  0  0  0  0  0  0  0  0
    5.8692   -0.4858    0.9857 H   0  0  0  0  0  0  0  0  0  0  0  0
    5.9225   -0.0966   -0.7784 H   0  0  0  0  0  0  0  0  0  0  0  0
    6.6629    0.9841    0.4081 H   0  0  0  0  0  0  0  0  0  0  0  0
    4.1784   -1.6009   -0.2389 H   0  0  0  0  0  0  0  0  0  0  0  0
    1.9547   -2.6031   -0.5244 H   0  0  0  0  0  0  0  0  0  0  0  0
   -0.7794   -1.9346   -0.4789 H   0  0  0  0  0  0  0  0  0  0  0  0
   -0.5844    2.1537    0.4528 H   0  0  0  0  0  0  0  0  0  0  0  0
    2.4015    2.2489    0.5614 H   0  0  0  0  0  0  0  0  0  0  0  0
   -2.8768   -1.8918    0.8141 H   0  0  0  0  0  0  0  0  0  0  0  0
   -5.3338   -1.8975    0.6858 H   0  0  0  0  0  0  0  0  0  0  0  0
   -6.5451    0.0609   -0.2372 H   0  0  0  0  0  0  0  0  0  0  0  0
   -5.2734    2.0341   -1.0423 H   0  0  0  0  0  0  0  0  0  0  0  0
   -2.8114    2.0510   -0.9424 H   0  0  0  0  0  0  0  0  0  0  0  0
  1  2  1  0
  2  3  1  0
  3  4  2  0
  4  5  1  0
  5  6  2  0
  6  7  1  0
  7  8  1  0
  8  9  2  0
  9 10  1  0
 10 11  2  0
  8 12  1  0
 12 13  2  0
 13 14  1  0
 14 15  2  0
 15 16  1  0
 16 17  2  0
 11  3  1  0
 10  6  1  0
 17 12  1  0
  1 18  1  0
  1 19  1  0
  1 20  1  0
  4 21  1  0
  5 22  1  0
  7 23  1  0
  9 24  1  0
 11 25  1  0
 13 26  1  0
 14 27  1  0
 15 28  1  0
 16 29  1  0
 17 30  1  0
M  END
>  <SASA>  (30) 
453.55560678882654

$$$$

     RDKit          3D

 30 32  0  0  0  0  0  0  0  0999 V2000
    5.3160   -1.1861   -0.2001 C   0  0  0  0  0  0  0  0  0  0  0  0
    4.8960    0.0696    0.3180 O   0  0  0  0  0  0  0  0  0  0  0  0
    3.5481    0.3154    0.3258 C   0  0  0  0  0  0  0  0  0  0  0  0
    3.1920    1.5639    0.8405 C   0  0  0  0  0  0  0  0  0  0  0  0
    1.8565    1.9737    0.9199 C   0  0  0  0  0  0  0  0  0  0  0  0
    0.8850    1.0805    0.4604 C   0  0  0  0  0  0  0  0  0  0  0  0
   -0.4843    1.2024    0.4134 N   0  0  0  0  0  0  0  0  0  0  0  0
   -1.0653    0.0741   -0.1234 C   0  0  0  0  0  0  0  0  0  0  0  0
   -0.0271   -0.7955   -0.4118 C   0  0  0  0  0  0  0  0  0  0  0  0
    1.2011   -0.1722   -0.0563 C   0  0  0  0  0  0  0  0  0  0  0  0
    2.5556   -0.5627   -0.1261 C   0  0  0  0  0  0  0  0  0  0  0  0
   -2.5117   -0.0793   -0.2852 C   0  0  0  0  0  0  0  0  0  0  0  0
   -3.1164   -1.3276   -0.0857 C   0  0  0  0  0  0  0  0  0  0  0  0
   -4.4971   -1.4842   -0.2338 C   0  0  0  0  0  0  0  0  0  0  0  0
   -5.2887   -0.3942   -0.5877 C   0  0  0  0  0  0  0  0  0  0  0  0
   -4.7007    0.8514   -0.7956 C   0  0  0  0  0  0  0  0  0  0  0  0
   -3.3198    1.0082   -0.6457 C   0  0  0  0  0  0  0  0  0  0  0  0
    6.4079   -1.2244   -0.1388 H   0  0  0  0  0  0  0  0  0  0  0  0
    5.0382   -1.2916   -1.2540 H   0  0  0  0  0  0  0  0  0  0  0  0
    4.9203   -2.0129    0.3990 H   0  0  0  0  0  0  0  0  0  0  0  0
    3.9730    2.2365    1.1892 H   0  0  0  0  0  0  0  0  0  0  0  0
    1.5959    2.9466    1.3225 H   0  0  0  0  0  0  0  0  0  0  0  0
   -0.9950    2.0055    0.7499 H   0  0  0  0  0  0  0  0  0  0  0  0
   -0.1372   -1.7800   -0.8473 H   0  0  0  0  0  0  0  0  0  0  0  0
    2.7894   -1.5395   -0.5305 H   0  0  0  0  0  0  0  0  0  0  0  0
   -2.5177   -2.1894    0.1996 H   0  0  0  0  0  0  0  0  0  0  0  0
   -4.9521   -2.4578   -0.0716 H   0  0  0  0  0  0  0  0  0  0  0  0
   -6.3622   -0.5165   -0.7053 H   0  0  0  0  0  0  0  0  0  0  0  0
   -5.3154    1.7010   -1.0814 H   0  0  0  0  0  0  0  0  0  0  0  0
   -2.8839    1.9853   -0.8366 H   0  0  0  0  0  0  0  0  0  0  0  0
  1  2  1  0
  2  3  1  0
  3  4  2  0
  4  5  1  0
  5  6  2  0
  6  7  1  0
  7  8  1  0
  8  9  2  0
  9 10  1  0
 10 11  2  0
  8 12  1  0
 12 13  2  0
 13 14  1  0
 14 15  2  0
 15 16  1  0
 16 17  2  0
 11  3  1  0
 10  6  1  0
 17 12  1  0
  1 18  1  0
  1 19  1  0
  1 20  1  0
  4 21  1  0
  5 22  1  0
  7 23  1  0
  9 24  1  0
 11 25  1  0
 13 26  1  0
 14 27  1  0
 15 28  1  0
 16 29  1  0
 17 30  1  0
M  END
>  <SASA>  (31) 
453.55560678882654

$$$$

     RDKit          3D

 30 32  0  0  0  0  0  0  0  0999 V2000
    5.1714    1.5731   -0.6838 C   0  0  0  0  0  0  0  0  0  0  0  0
    4.8989    0.2492   -0.2427 O   0  0  0  0  0  0  0  0  0  0  0  0
    3.5808   -0.0927   -0.0907 C   0  0  0  0  0  0  0  0  0  0  0  0
    3.3707   -1.4046    0.3397 C   0  0  0  0  0  0  0  0  0  0  0  0
    2.0842   -1.9149    0.5448 C   0  0  0  0  0  0  0  0  0  0  0  0
    1.0090   -1.0565    0.3001 C   0  0  0  0  0  0  0  0  0  0  0  0
   -0.3448   -1.2718    0.4128 N   0  0  0  0  0  0  0  0  0  0  0  0
   -1.0577   -0.1449    0.0659 C   0  0  0  0  0  0  0  0  0  0  0  0
   -0.1202    0.8195   -0.2635 C   0  0  0  0  0  0  0  0  0  0  0  0
    1.1790    0.2569   -0.1270 C   0  0  0  0  0  0  0  0  0  0  0  0
    2.4869    0.7486   -0.3269 C   0  0  0  0  0  0  0  0  0  0  0  0
   -2.5194   -0.0821    0.1019 C   0  0  0  0  0  0  0  0  0  0  0  0
   -3.1664    1.0966    0.4966 C   0  0  0  0  0  0  0  0  0  0  0  0
   -4.5614    1.1661    0.5382 C   0  0  0  0  0  0  0  0  0  0  0  0
   -5.3259    0.0579    0.1809 C   0  0  0  0  0  0  0  0  0  0  0  0
   -4.6967   -1.1185   -0.2198 C   0  0  0  0  0  0  0  0  0  0  0  0
   -3.3012   -1.1883   -0.2597 C   0  0  0  0  0  0  0  0  0  0  0  0
    6.2576    1.6842   -0.7560 H   0  0  0  0  0  0  0  0  0  0  0  0
    4.7519    1.7522   -1.6793 H   0  0  0  0  0  0  0  0  0  0  0  0
    4.8089    2.3124    0.0382 H   0  0  0  0  0  0  0  0  0  0  0  0
    4.2296   -2.0477    0.5206 H   0  0  0  0  0  0  0  0  0  0  0  0
    1.9373   -2.9361    0.8796 H   0  0  0  0  0  0  0  0  0  0  0  0
   -0.7580   -2.1364    0.7301 H   0  0  0  0  0  0  0  0  0  0  0  0
   -0.3453    1.8286   -0.5832 H   0  0  0  0  0  0  0  0  0  0  0  0
    2.6066    1.7719   -0.6597 H   0  0  0  0  0  0  0  0  0  0  0  0
   -2.5881    1.9703    0.7879 H   0  0  0  0  0  0  0  0  0  0  0  0
   -5.0487    2.0860    0.8506 H   0  0  0  0  0  0  0  0  0  0  0  0
   -6.4110    0.1127    0.2110 H   0  0  0  0  0  0  0  0  0  0  0  0
   -5.2917   -1.9811   -0.5083 H   0  0  0  0  0  0  0  0  0  0  0  0
   -2.8364   -2.1105   -0.5983 H   0  0  0  0  0  0  0  0  0  0  0  0
  1  2  1  0
  2  3  1  0
  3  4  2  0
  4  5  1  0
  5  6  2  0
  6  7  1  0
  7  8  1  0
  8  9  2  0
  9 10  1  0
 10 11  2  0
  8 12  1  0
 12 13  2  0
 13 14  1  0
 14 15  2  0
 15 16  1  0
 16 17  2  0
 11  3  1  0
 10  6  1  0
 17 12  1  0
  1 18  1  0
  1 19  1  0
  1 20  1  0
  4 21  1  0
  5 22  1  0
  7 23  1  0
  9 24  1  0
 11 25  1  0
 13 26  1  0
 14 27  1  0
 15 28  1  0
 16 29  1  0
 17 30  1  0
M  END
>  <SASA>  (32) 
453.55560678882654

$$$$
