
     RDKit          3D

 22 24  0  0  0  0  0  0  0  0999 V2000
    3.4148    0.4059    0.1988 C   0  0  0  0  0  0  0  0  0  0  0  0
    3.1002   -0.9477    0.1051 C   0  0  0  0  0  0  0  0  0  0  0  0
    1.7674   -1.3651    0.0127 C   0  0  0  0  0  0  0  0  0  0  0  0
    0.7366   -0.4022    0.0148 C   0  0  0  0  0  0  0  0  0  0  0  0
    1.0848    0.9446    0.1099 C   0  0  0  0  0  0  0  0  0  0  0  0
    2.4121    1.3802    0.2030 C   0  0  0  0  0  0  0  0  0  0  0  0
   -0.0862    1.6651    0.0909 N   0  0  0  0  0  0  0  0  0  0  0  0
   -1.1769    0.8342   -0.0127 C   0  0  0  0  0  0  0  0  0  0  0  0
   -2.5425    1.1385   -0.0655 C   0  0  0  0  0  0  0  0  0  0  0  0
   -3.4395    0.0715   -0.1727 C   0  0  0  0  0  0  0  0  0  0  0  0
   -2.9867   -1.2447   -0.2248 C   0  0  0  0  0  0  0  0  0  0  0  0
   -1.6175   -1.5302   -0.1708 C   0  0  0  0  0  0  0  0  0  0  0  0
   -0.6914   -0.4719   -0.0626 C   0  0  0  0  0  0  0  0  0  0  0  0
    4.4564    0.7108    0.2698 H   0  0  0  0  0  0  0  0  0  0  0  0
    3.8954   -1.6890    0.1035 H   0  0  0  0  0  0  0  0  0  0  0  0
    1.5305   -2.4222   -0.0601 H   0  0  0  0  0  0  0  0  0  0  0  0
    2.6613    2.4337    0.2762 H   0  0  0  0  0  0  0  0  0  0  0  0
   -0.1382    2.6711    0.1459 H   0  0  0  0  0  0  0  0  0  0  0  0
   -2.8991    2.1624   -0.0252 H   0  0  0  0  0  0  0  0  0  0  0  0
   -4.5074    0.2735   -0.2160 H   0  0  0  0  0  0  0  0  0  0  0  0
   -3.7014   -2.0596   -0.3082 H   0  0  0  0  0  0  0  0  0  0  0  0
   -1.2728   -2.5589   -0.2120 H   0  0  0  0  0  0  0  0  0  0  0  0
  1  2  2  0
  2  3  1  0
  3  4  2  0
  4  5  1  0
  5  6  2  0
  5  7  1  0
  7  8  1  0
  8  9  2  0
  9 10  1  0
 10 11  2  0
 11 12  1  0
 12 13  2  0
  6  1  1  0
 13  4  1  0
 13  8  1  0
  1 14  1  0
  2 15  1  0
  3 16  1  0
  6 17  1  0
  7 18  1  0
  9 19  1  0
 10 20  1  0
 11 21  1  0
 12 22  1  0
M  END
$$$$

     RDKit          3D

 22 24  0  0  0  0  0  0  0  0999 V2000
    3.4397   -0.1316    0.1261 C   0  0  0  0  0  0  0  0  0  0  0  0
    2.9354   -1.3242   -0.3872 C   0  0  0  0  0  0  0  0  0  0  0  0
    1.5560   -1.5098   -0.5351 C   0  0  0  0  0  0  0  0  0  0  0  0
    0.6723   -0.4767   -0.1595 C   0  0  0  0  0  0  0  0  0  0  0  0
    1.2088    0.7047    0.3509 C   0  0  0  0  0  0  0  0  0  0  0  0
    2.5854    0.9079    0.5058 C   0  0  0  0  0  0  0  0  0  0  0  0
    0.1517    1.5368    0.6353 N   0  0  0  0  0  0  0  0  0  0  0  0
   -1.0468    0.9369    0.3278 C   0  0  0  0  0  0  0  0  0  0  0  0
   -2.3560    1.4166    0.4552 C   0  0  0  0  0  0  0  0  0  0  0  0
   -3.3962    0.5722    0.0561 C   0  0  0  0  0  0  0  0  0  0  0  0
   -3.1352   -0.6992   -0.4493 C   0  0  0  0  0  0  0  0  0  0  0  0
   -1.8198   -1.1623   -0.5696 C   0  0  0  0  0  0  0  0  0  0  0  0
   -0.7519   -0.3301   -0.1741 C   0  0  0  0  0  0  0  0  0  0  0  0
    4.5148   -0.0060    0.2335 H   0  0  0  0  0  0  0  0  0  0  0  0
    3.6175   -2.1198   -0.6764 H   0  0  0  0  0  0  0  0  0  0  0  0
    1.1710   -2.4425   -0.9360 H   0  0  0  0  0  0  0  0  0  0  0  0
    2.9822    1.8354    0.9052 H   0  0  0  0  0  0  0  0  0  0  0  0
    0.2434    2.4652    1.0192 H   0  0  0  0  0  0  0  0  0  0  0  0
   -2.5634    2.4064    0.8484 H   0  0  0  0  0  0  0  0  0  0  0  0
   -4.4251    0.9144    0.1420 H   0  0  0  0  0  0  0  0  0  0  0  0
   -3.9590   -1.3398   -0.7539 H   0  0  0  0  0  0  0  0  0  0  0  0
   -1.6248   -2.1547   -0.9646 H   0  0  0  0  0  0  0  0  0  0  0  0
  1  2  2  0
  2  3  1  0
  3  4  2  0
  4  5  1  0
  5  6  2  0
  5  7  1  0
  7  8  1  0
  8  9  2  0
  9 10  1  0
 10 11  2  0
 11 12  1  0
 12 13  2  0
  6  1  1  0
 13  4  1  0
 13  8  1  0
  1 14  1  0
  2 15  1  0
  3 16  1  0
  6 17  1  0
  7 18  1  0
  9 19  1  0
 10 20  1  0
 11 21  1  0
 12 22  1  0
M  END
$$$$

     RDKit          3D

 22 24  0  0  0  0  0  0  0  0999 V2000
   -3.4426    0.0321    0.1129 C   0  0  0  0  0  0  0  0  0  0  0  0
   -2.9577    1.3310   -0.0206 C   0  0  0  0  0  0  0  0  0  0  0  0
   -1.5811    1.5746   -0.0889 C   0  0  0  0  0  0  0  0  0  0  0  0
   -0.6802    0.4914   -0.0215 C   0  0  0  0  0  0  0  0  0  0  0  0
   -1.1975   -0.7965    0.1121 C   0  0  0  0  0  0  0  0  0  0  0  0
   -2.5710   -1.0588    0.1820 C   0  0  0  0  0  0  0  0  0  0  0  0
   -0.1265   -1.6579    0.1538 N   0  0  0  0  0  0  0  0  0  0  0  0
    1.0624   -0.9746    0.0522 C   0  0  0  0  0  0  0  0  0  0  0  0
    2.3796   -1.4489    0.0507 C   0  0  0  0  0  0  0  0  0  0  0  0
    3.4063   -0.5075   -0.0688 C   0  0  0  0  0  0  0  0  0  0  0  0
    3.1243    0.8518   -0.1819 C   0  0  0  0  0  0  0  0  0  0  0  0
    1.8011    1.3081   -0.1786 C   0  0  0  0  0  0  0  0  0  0  0  0
    0.7467    0.3790   -0.0593 C   0  0  0  0  0  0  0  0  0  0  0  0
   -4.5158   -0.1372    0.1643 H   0  0  0  0  0  0  0  0  0  0  0  0
   -3.6530    2.1652   -0.0725 H   0  0  0  0  0  0  0  0  0  0  0  0
   -1.2113    2.5901   -0.1929 H   0  0  0  0  0  0  0  0  0  0  0  0
   -2.9526   -2.0692    0.2860 H   0  0  0  0  0  0  0  0  0  0  0  0
   -0.2030   -2.6596    0.2468 H   0  0  0  0  0  0  0  0  0  0  0  0
    2.6034   -2.5069    0.1386 H   0  0  0  0  0  0  0  0  0  0  0  0
    4.4410   -0.8428   -0.0733 H   0  0  0  0  0  0  0  0  0  0  0  0
    3.9378    1.5671   -0.2739 H   0  0  0  0  0  0  0  0  0  0  0  0
    1.5898    2.3694   -0.2672 H   0  0  0  0  0  0  0  0  0  0  0  0
  1  2  2  0
  2  3  1  0
  3  4  2  0
  4  5  1  0
  5  6  2  0
  5  7  1  0
  7  8  1  0
  8  9  2  0
  9 10  1  0
 10 11  2  0
 11 12  1  0
 12 13  2  0
  6  1  1  0
 13  4  1  0
 13  8  1  0
  1 14  1  0
  2 15  1  0
  3 16  1  0
  6 17  1  0
  7 18  1  0
  9 19  1  0
 10 20  1  0
 11 21  1  0
 12 22  1  0
M  END
$$$$

     RDKit          3D

 22 24  0  0  0  0  0  0  0  0999 V2000
    3.3225   -0.9090   -0.0103 C   0  0  0  0  0  0  0  0  0  0  0  0
    2.9718   -0.3839   -1.2518 C   0  0  0  0  0  0  0  0  0  0  0  0
    1.6663    0.0577   -1.4961 C   0  0  0  0  0  0  0  0  0  0  0  0
    0.7001   -0.0319   -0.4724 C   0  0  0  0  0  0  0  0  0  0  0  0
    1.0831   -0.5623    0.7589 C   0  0  0  0  0  0  0  0  0  0  0  0
    2.3839   -1.0087    1.0211 C   0  0  0  0  0  0  0  0  0  0  0  0
   -0.0272   -0.5388    1.5698 N   0  0  0  0  0  0  0  0  0  0  0  0
   -1.1121   -0.0134    0.9083 C   0  0  0  0  0  0  0  0  0  0  0  0
   -2.4250    0.1937    1.3484 C   0  0  0  0  0  0  0  0  0  0  0  0
   -3.3303    0.7545    0.4425 C   0  0  0  0  0  0  0  0  0  0  0  0
   -2.9360    1.0934   -0.8497 C   0  0  0  0  0  0  0  0  0  0  0  0
   -1.6190    0.8792   -1.2725 C   0  0  0  0  0  0  0  0  0  0  0  0
   -0.6859    0.3147   -0.3781 C   0  0  0  0  0  0  0  0  0  0  0  0
    4.3421   -1.2470    0.1605 H   0  0  0  0  0  0  0  0  0  0  0  0
    3.7173   -0.3153   -2.0401 H   0  0  0  0  0  0  0  0  0  0  0  0
    1.4011    0.4658   -2.4667 H   0  0  0  0  0  0  0  0  0  0  0  0
    2.6609   -1.4184    1.9868 H   0  0  0  0  0  0  0  0  0  0  0  0
   -0.0436   -0.8644    2.5246 H   0  0  0  0  0  0  0  0  0  0  0  0
   -2.7360   -0.0689    2.3541 H   0  0  0  0  0  0  0  0  0  0  0  0
   -4.3582    0.9285    0.7527 H   0  0  0  0  0  0  0  0  0  0  0  0
   -3.6561    1.5284   -1.5383 H   0  0  0  0  0  0  0  0  0  0  0  0
   -1.3198    1.1461   -2.2815 H   0  0  0  0  0  0  0  0  0  0  0  0
  1  2  2  0
  2  3  1  0
  3  4  2  0
  4  5  1  0
  5  6  2  0
  5  7  1  0
  7  8  1  0
  8  9  2  0
  9 10  1  0
 10 11  2  0
 11 12  1  0
 12 13  2  0
  6  1  1  0
 13  4  1  0
 13  8  1  0
  1 14  1  0
  2 15  1  0
  3 16  1  0
  6 17  1  0
  7 18  1  0
  9 19  1  0
 10 20  1  0
 11 21  1  0
 12 22  1  0
M  END
$$$$

     RDKit          3D

 22 24  0  0  0  0  0  0  0  0999 V2000
    3.3811    0.6002    0.2703 C   0  0  0  0  0  0  0  0  0  0  0  0
    3.1464   -0.7691    0.1698 C   0  0  0  0  0  0  0  0  0  0  0  0
    1.8419   -1.2618    0.0495 C   0  0  0  0  0  0  0  0  0  0  0  0
    0.7579   -0.3595    0.0302 C   0  0  0  0  0  0  0  0  0  0  0  0
    1.0265    1.0049    0.1327 C   0  0  0  0  0  0  0  0  0  0  0  0
    2.3245    1.5155    0.2537 C   0  0  0  0  0  0  0  0  0  0  0  0
   -0.1831    1.6574    0.0894 N   0  0  0  0  0  0  0  0  0  0  0  0
   -1.2221    0.7656   -0.0372 C   0  0  0  0  0  0  0  0  0  0  0  0
   -2.6015    0.9914   -0.1185 C   0  0  0  0  0  0  0  0  0  0  0  0
   -3.4336   -0.1250   -0.2447 C   0  0  0  0  0  0  0  0  0  0  0  0
   -2.9053   -1.4130   -0.2875 C   0  0  0  0  0  0  0  0  0  0  0  0
   -1.5235   -1.6199   -0.2049 C   0  0  0  0  0  0  0  0  0  0  0  0
   -0.6618   -0.5106   -0.0771 C   0  0  0  0  0  0  0  0  0  0  0  0
    4.4019    0.9640    0.3631 H   0  0  0  0  0  0  0  0  0  0  0  0
    3.9826   -1.4637    0.1848 H   0  0  0  0  0  0  0  0  0  0  0  0
    1.6674   -2.3306   -0.0284 H   0  0  0  0  0  0  0  0  0  0  0  0
    2.5114    2.5814    0.3322 H   0  0  0  0  0  0  0  0  0  0  0  0
   -0.2937    2.6587    0.1434 H   0  0  0  0  0  0  0  0  0  0  0  0
   -3.0169    1.9932   -0.0855 H   0  0  0  0  0  0  0  0  0  0  0  0
   -4.5101    0.0157   -0.3103 H   0  0  0  0  0  0  0  0  0  0  0  0
   -3.5704   -2.2674   -0.3860 H   0  0  0  0  0  0  0  0  0  0  0  0
   -1.1197   -2.6272   -0.2390 H   0  0  0  0  0  0  0  0  0  0  0  0
  1  2  2  0
  2  3  1  0
  3  4  2  0
  4  5  1  0
  5  6  2  0
  5  7  1  0
  7  8  1  0
  8  9  2  0
  9 10  1  0
 10 11  2  0
 11 12  1  0
 12 13  2  0
  6  1  1  0
 13  4  1  0
 13  8  1  0
  1 14  1  0
  2 15  1  0
  3 16  1  0
  6 17  1  0
  7 18  1  0
  9 19  1  0
 10 20  1  0
 11 21  1  0
 12 22  1  0
M  END
$$$$

     RDKit          3D

 22 24  0  0  0  0  0  0  0  0999 V2000
   -3.4392   -0.1855    0.0530 C   0  0  0  0  0  0  0  0  0  0  0  0
   -2.8946   -1.4619   -0.0668 C   0  0  0  0  0  0  0  0  0  0  0  0
   -1.5075   -1.6439   -0.1101 C   0  0  0  0  0  0  0  0  0  0  0  0
   -0.6572   -0.5213   -0.0313 C   0  0  0  0  0  0  0  0  0  0  0  0
   -1.2336    0.7426    0.0881 C   0  0  0  0  0  0  0  0  0  0  0  0
   -2.6185    0.9435    0.1329 C   0  0  0  0  0  0  0  0  0  0  0  0
   -0.2030    1.6511    0.1449 N   0  0  0  0  0  0  0  0  0  0  0  0
    1.0167    1.0212    0.0668 C   0  0  0  0  0  0  0  0  0  0  0  0
    2.3114    1.5539    0.0863 C   0  0  0  0  0  0  0  0  0  0  0  0
    3.3809    0.6589   -0.0115 C   0  0  0  0  0  0  0  0  0  0  0  0
    3.1619   -0.7120   -0.1240 C   0  0  0  0  0  0  0  0  0  0  0  0
    1.8605   -1.2269   -0.1419 C   0  0  0  0  0  0  0  0  0  0  0  0
    0.7637   -0.3454   -0.0448 C   0  0  0  0  0  0  0  0  0  0  0  0
   -4.5196   -0.0642    0.0850 H   0  0  0  0  0  0  0  0  0  0  0  0
   -3.5509   -2.3264   -0.1274 H   0  0  0  0  0  0  0  0  0  0  0  0
   -1.0910   -2.6422   -0.2036 H   0  0  0  0  0  0  0  0  0  0  0  0
   -3.0466    1.9362    0.2262 H   0  0  0  0  0  0  0  0  0  0  0  0
   -0.3257    2.6486    0.2325 H   0  0  0  0  0  0  0  0  0  0  0  0
    2.4861    2.6212    0.1739 H   0  0  0  0  0  0  0  0  0  0  0  0
    4.3996    1.0401    0.0006 H   0  0  0  0  0  0  0  0  0  0  0  0
    4.0080   -1.3906   -0.1989 H   0  0  0  0  0  0  0  0  0  0  0  0
    1.6984   -2.2969   -0.2300 H   0  0  0  0  0  0  0  0  0  0  0  0
  1  2  2  0
  2  3  1  0
  3  4  2  0
  4  5  1  0
  5  6  2  0
  5  7  1  0
  7  8  1  0
  8  9  2  0
  9 10  1  0
 10 11  2  0
 11 12  1  0
 12 13  2  0
  6  1  1  0
 13  4  1  0
 13  8  1  0
  1 14  1  0
  2 15  1  0
  3 16  1  0
  6 17  1  0
  7 18  1  0
  9 19  1  0
 10 20  1  0
 11 21  1  0
 12 22  1  0
M  END
$$$$

     RDKit          3D

 22 24  0  0  0  0  0  0  0  0999 V2000
   -3.4285    0.0740    0.3243 C   0  0  0  0  0  0  0  0  0  0  0  0
   -2.8493    1.0197    1.1671 C   0  0  0  0  0  0  0  0  0  0  0  0
   -1.4593    1.1782    1.2122 C   0  0  0  0  0  0  0  0  0  0  0  0
   -0.6416    0.3704    0.3947 C   0  0  0  0  0  0  0  0  0  0  0  0
   -1.2523   -0.5667   -0.4377 C   0  0  0  0  0  0  0  0  0  0  0  0
   -2.6405   -0.7390   -0.4959 C   0  0  0  0  0  0  0  0  0  0  0  0
   -0.2486   -1.2143   -1.1189 N   0  0  0  0  0  0  0  0  0  0  0  0
    0.9867   -0.7304   -0.7576 C   0  0  0  0  0  0  0  0  0  0  0  0
    2.2644   -1.0977   -1.1966 C   0  0  0  0  0  0  0  0  0  0  0  0
    3.3572   -0.4222   -0.6451 C   0  0  0  0  0  0  0  0  0  0  0  0
    3.1767    0.5791    0.3062 C   0  0  0  0  0  0  0  0  0  0  0  0
    1.8917    0.9332    0.7334 C   0  0  0  0  0  0  0  0  0  0  0  0
    0.7721    0.2670    0.1927 C   0  0  0  0  0  0  0  0  0  0  0  0
   -4.5105   -0.0344    0.3032 H   0  0  0  0  0  0  0  0  0  0  0  0
   -3.4805    1.6418    1.7967 H   0  0  0  0  0  0  0  0  0  0  0  0
   -1.0157    1.9177    1.8718 H   0  0  0  0  0  0  0  0  0  0  0  0
   -3.0955   -1.4746   -1.1510 H   0  0  0  0  0  0  0  0  0  0  0  0
   -0.3989   -1.9479   -1.7950 H   0  0  0  0  0  0  0  0  0  0  0  0
    2.4092   -1.8771   -1.9375 H   0  0  0  0  0  0  0  0  0  0  0  0
    4.3636   -0.6833   -0.9646 H   0  0  0  0  0  0  0  0  0  0  0  0
    4.0403    1.0919    0.7223 H   0  0  0  0  0  0  0  0  0  0  0  0
    1.7595    1.7148    1.4754 H   0  0  0  0  0  0  0  0  0  0  0  0
  1  2  2  0
  2  3  1  0
  3  4  2  0
  4  5  1  0
  5  6  2  0
  5  7  1  0
  7  8  1  0
  8  9  2  0
  9 10  1  0
 10 11  2  0
 11 12  1  0
 12 13  2  0
  6  1  1  0
 13  4  1  0
 13  8  1  0
  1 14  1  0
  2 15  1  0
  3 16  1  0
  6 17  1  0
  7 18  1  0
  9 19  1  0
 10 20  1  0
 11 21  1  0
 12 22  1  0
M  END
$$$$

     RDKit          3D

 22 24  0  0  0  0  0  0  0  0999 V2000
    3.3919    0.5729    0.1785 C   0  0  0  0  0  0  0  0  0  0  0  0
    3.1428   -0.7954    0.1015 C   0  0  0  0  0  0  0  0  0  0  0  0
    1.8314   -1.2777    0.0200 C   0  0  0  0  0  0  0  0  0  0  0  0
    0.7553   -0.3659    0.0160 C   0  0  0  0  0  0  0  0  0  0  0  0
    1.0382    0.9971    0.0942 C   0  0  0  0  0  0  0  0  0  0  0  0
    2.3433    1.4975    0.1763 C   0  0  0  0  0  0  0  0  0  0  0  0
   -0.1663    1.6600    0.0725 N   0  0  0  0  0  0  0  0  0  0  0  0
   -1.2159    0.7761   -0.0167 C   0  0  0  0  0  0  0  0  0  0  0  0
   -2.5949    1.0133   -0.0667 C   0  0  0  0  0  0  0  0  0  0  0  0
   -3.4396   -0.0969   -0.1577 C   0  0  0  0  0  0  0  0  0  0  0  0
   -2.9238   -1.3902   -0.1970 C   0  0  0  0  0  0  0  0  0  0  0  0
   -1.5422   -1.6085   -0.1460 C   0  0  0  0  0  0  0  0  0  0  0  0
   -0.6680   -0.5055   -0.0540 C   0  0  0  0  0  0  0  0  0  0  0  0
    4.4179    0.9286    0.2412 H   0  0  0  0  0  0  0  0  0  0  0  0
    3.9730   -1.4972    0.1047 H   0  0  0  0  0  0  0  0  0  0  0  0
    1.6458   -2.3458   -0.0397 H   0  0  0  0  0  0  0  0  0  0  0  0
    2.5414    2.5626    0.2364 H   0  0  0  0  0  0  0  0  0  0  0  0
   -0.2668    2.6628    0.1163 H   0  0  0  0  0  0  0  0  0  0  0  0
   -3.0005    2.0192   -0.0363 H   0  0  0  0  0  0  0  0  0  0  0  0
   -4.5162    0.0526   -0.1984 H   0  0  0  0  0  0  0  0  0  0  0  0
   -3.5986   -2.2397   -0.2679 H   0  0  0  0  0  0  0  0  0  0  0  0
   -1.1482   -2.6198   -0.1772 H   0  0  0  0  0  0  0  0  0  0  0  0
  1  2  2  0
  2  3  1  0
  3  4  2  0
  4  5  1  0
  5  6  2  0
  5  7  1  0
  7  8  1  0
  8  9  2  0
  9 10  1  0
 10 11  2  0
 11 12  1  0
 12 13  2  0
  6  1  1  0
 13  4  1  0
 13  8  1  0
  1 14  1  0
  2 15  1  0
  3 16  1  0
  6 17  1  0
  7 18  1  0
  9 19  1  0
 10 20  1  0
 11 21  1  0
 12 22  1  0
M  END
$$$$
