
     RDKit          3D

 22 24  0  0  0  0  0  0  0  0999 V2000
    3.4443   -0.0411   -0.0131 C   0  0  0  0  0  0  0  0  0  0  0  0
    2.9510   -1.2539    0.4620 C   0  0  0  0  0  0  0  0  0  0  0  0
    1.5720   -1.4772    0.5501 C   0  0  0  0  0  0  0  0  0  0  0  0
    0.6775   -0.4616    0.1529 C   0  0  0  0  0  0  0  0  0  0  0  0
    1.2032    0.7408   -0.3181 C   0  0  0  0  0  0  0  0  0  0  0  0
    2.5792    0.9817   -0.4131 C   0  0  0  0  0  0  0  0  0  0  0  0
    0.1371    1.5497   -0.6342 N   0  0  0  0  0  0  0  0  0  0  0  0
   -1.0568    0.9146   -0.3850 C   0  0  0  0  0  0  0  0  0  0  0  0
   -2.3718    1.3623   -0.5596 C   0  0  0  0  0  0  0  0  0  0  0  0
   -3.4050    0.4854   -0.2158 C   0  0  0  0  0  0  0  0  0  0  0  0
   -3.1315   -0.7864    0.2819 C   0  0  0  0  0  0  0  0  0  0  0  0
   -1.8104   -1.2172    0.4500 C   0  0  0  0  0  0  0  0  0  0  0  0
   -0.7495   -0.3519    0.1107 C   0  0  0  0  0  0  0  0  0  0  0  0
    4.5192    0.1137   -0.0742 H   0  0  0  0  0  0  0  0  0  0  0  0
    3.6413   -2.0361    0.7679 H   0  0  0  0  0  0  0  0  0  0  0  0
    1.1956   -2.4255    0.9215 H   0  0  0  0  0  0  0  0  0  0  0  0
    2.9674    1.9251   -0.7826 H   0  0  0  0  0  0  0  0  0  0  0  0
    0.2199    2.4859   -1.0008 H   0  0  0  0  0  0  0  0  0  0  0  0
   -2.5890    2.3522   -0.9471 H   0  0  0  0  0  0  0  0  0  0  0  0
   -4.4381    0.8023   -0.3394 H   0  0  0  0  0  0  0  0  0  0  0  0
   -3.9499   -1.4525    0.5431 H   0  0  0  0  0  0  0  0  0  0  0  0
   -1.6057   -2.2102    0.8386 H   0  0  0  0  0  0  0  0  0  0  0  0
  1  2  2  0
  2  3  1  0
  3  4  2  0
  4  5  1  0
  5  6  2  0
  5  7  1  0
  7  8  1  0
  8  9  2  0
  9 10  1  0
 10 11  2  0
 11 12  1  0
 12 13  2  0
  6  1  1  0
 13  4  1  0
 13  8  1  0
  1 14  1  0
  2 15  1  0
  3 16  1  0
  6 17  1  0
  7 18  1  0
  9 19  1  0
 10 20  1  0
 11 21  1  0
 12 22  1  0
M  END
