
     RDKit          3D

 27 29  0  0  0  0  0  0  0  0999 V2000
    4.6193   -0.7014    0.1444 C   0  0  0  0  0  0  0  0  0  0  0  0
    4.2489    0.6316    0.2797 C   0  0  0  0  0  0  0  0  0  0  0  0
    2.8946    0.9924    0.2764 C   0  0  0  0  0  0  0  0  0  0  0  0
    1.8712    0.0340    0.1380 C   0  0  0  0  0  0  0  0  0  0  0  0
    2.2863   -1.3080    0.0031 C   0  0  0  0  0  0  0  0  0  0  0  0
    3.6370   -1.6737    0.0058 C   0  0  0  0  0  0  0  0  0  0  0  0
    0.4231    0.3829    0.1304 C   0  0  0  0  0  0  0  0  0  0  0  0
   -0.0662    1.6810    0.2581 C   0  0  0  0  0  0  0  0  0  0  0  0
   -1.4425    1.9033    0.2388 C   0  0  0  0  0  0  0  0  0  0  0  0
   -2.3190    0.8268    0.0920 C   0  0  0  0  0  0  0  0  0  0  0  0
   -3.7146    1.0008    0.0667 C   0  0  0  0  0  0  0  0  0  0  0  0
   -4.5570   -0.0989   -0.0815 C   0  0  0  0  0  0  0  0  0  0  0  0
   -4.0092   -1.3706   -0.2045 C   0  0  0  0  0  0  0  0  0  0  0  0
   -2.6208   -1.5356   -0.1785 C   0  0  0  0  0  0  0  0  0  0  0  0
   -1.7585   -0.4569   -0.0319 C   0  0  0  0  0  0  0  0  0  0  0  0
   -0.4301   -0.6674   -0.0128 N   0  0  0  0  0  0  0  0  0  0  0  0
    5.6690   -0.9815    0.1469 H   0  0  0  0  0  0  0  0  0  0  0  0
    5.0125    1.3976    0.3886 H   0  0  0  0  0  0  0  0  0  0  0  0
    2.6675    2.0484    0.3858 H   0  0  0  0  0  0  0  0  0  0  0  0
    1.5427   -2.0966   -0.1076 H   0  0  0  0  0  0  0  0  0  0  0  0
    3.9130   -2.7194   -0.1009 H   0  0  0  0  0  0  0  0  0  0  0  0
    0.5906    2.5341    0.3732 H   0  0  0  0  0  0  0  0  0  0  0  0
   -1.8197    2.9177    0.3388 H   0  0  0  0  0  0  0  0  0  0  0  0
   -4.1492    1.9929    0.1624 H   0  0  0  0  0  0  0  0  0  0  0  0
   -5.6352    0.0365   -0.1009 H   0  0  0  0  0  0  0  0  0  0  0  0
   -4.6551   -2.2369   -0.3207 H   0  0  0  0  0  0  0  0  0  0  0  0
   -2.1987   -2.5331   -0.2751 H   0  0  0  0  0  0  0  0  0  0  0  0
  1  2  2  0
  2  3  1  0
  3  4  2  0
  4  5  1  0
  5  6  2  0
  4  7  1  0
  7  8  1  0
  8  9  2  0
  9 10  1  0
 10 11  2  0
 11 12  1  0
 12 13  2  0
 13 14  1  0
 14 15  2  0
 15 16  1  0
  6  1  1  0
 16  7  2  0
 15 10  1  0
  1 17  1  0
  2 18  1  0
  3 19  1  0
  5 20  1  0
  6 21  1  0
  8 22  1  0
  9 23  1  0
 11 24  1  0
 12 25  1  0
 13 26  1  0
 14 27  1  0
M  END
$$$$

     RDKit          3D

 27 29  0  0  0  0  0  0  0  0999 V2000
    4.6374   -0.2652    0.5676 C   0  0  0  0  0  0  0  0  0  0  0  0
    4.2314   -0.2743   -0.7618 C   0  0  0  0  0  0  0  0  0  0  0  0
    2.8677   -0.2515   -1.0843 C   0  0  0  0  0  0  0  0  0  0  0  0
    1.8700   -0.2189   -0.0900 C   0  0  0  0  0  0  0  0  0  0  0  0
    2.3209   -0.2106    1.2472 C   0  0  0  0  0  0  0  0  0  0  0  0
    3.6812   -0.2333    1.5747 C   0  0  0  0  0  0  0  0  0  0  0  0
    0.4128   -0.1941   -0.3977 C   0  0  0  0  0  0  0  0  0  0  0  0
   -0.1111   -0.2003   -1.6885 C   0  0  0  0  0  0  0  0  0  0  0  0
   -1.4932   -0.1753   -1.8710 C   0  0  0  0  0  0  0  0  0  0  0  0
   -2.3407   -0.1443   -0.7623 C   0  0  0  0  0  0  0  0  0  0  0  0
   -3.7408   -0.1183   -0.8957 C   0  0  0  0  0  0  0  0  0  0  0  0
   -4.5537   -0.0877    0.2353 C   0  0  0  0  0  0  0  0  0  0  0  0
   -3.9720   -0.0830    1.4978 C   0  0  0  0  0  0  0  0  0  0  0  0
   -2.5794   -0.1089    1.6224 C   0  0  0  0  0  0  0  0  0  0  0  0
   -1.7461   -0.1397    0.5119 C   0  0  0  0  0  0  0  0  0  0  0  0
   -0.4122   -0.1639    0.6840 N   0  0  0  0  0  0  0  0  0  0  0  0
    5.6944   -0.2829    0.8180 H   0  0  0  0  0  0  0  0  0  0  0  0
    4.9745   -0.2992   -1.5549 H   0  0  0  0  0  0  0  0  0  0  0  0
    2.6125   -0.2600   -2.1395 H   0  0  0  0  0  0  0  0  0  0  0  0
    1.5985   -0.1858    2.0625 H   0  0  0  0  0  0  0  0  0  0  0  0
    3.9850   -0.2258    2.6181 H   0  0  0  0  0  0  0  0  0  0  0  0
    0.5228   -0.2241   -2.5661 H   0  0  0  0  0  0  0  0  0  0  0  0
   -1.8973   -0.1803   -2.8799 H   0  0  0  0  0  0  0  0  0  0  0  0
   -4.2018   -0.1219   -1.8805 H   0  0  0  0  0  0  0  0  0  0  0  0
   -5.6354   -0.0677    0.1313 H   0  0  0  0  0  0  0  0  0  0  0  0
   -4.5947   -0.0593    2.3883 H   0  0  0  0  0  0  0  0  0  0  0  0
   -2.1307   -0.1051    2.6129 H   0  0  0  0  0  0  0  0  0  0  0  0
  1  2  2  0
  2  3  1  0
  3  4  2  0
  4  5  1  0
  5  6  2  0
  4  7  1  0
  7  8  1  0
  8  9  2  0
  9 10  1  0
 10 11  2  0
 11 12  1  0
 12 13  2  0
 13 14  1  0
 14 15  2  0
 15 16  1  0
  6  1  1  0
 16  7  2  0
 15 10  1  0
  1 17  1  0
  2 18  1  0
  3 19  1  0
  5 20  1  0
  6 21  1  0
  8 22  1  0
  9 23  1  0
 11 24  1  0
 12 25  1  0
 13 26  1  0
 14 27  1  0
M  END
$$$$

     RDKit          3D

 27 29  0  0  0  0  0  0  0  0999 V2000
    4.6660   -0.1757    0.1808 C   0  0  0  0  0  0  0  0  0  0  0  0
    4.1502    1.1150    0.1619 C   0  0  0  0  0  0  0  0  0  0  0  0
    2.7651    1.3217    0.1083 C   0  0  0  0  0  0  0  0  0  0  0  0
    1.8548    0.2469    0.0721 C   0  0  0  0  0  0  0  0  0  0  0  0
    2.4159   -1.0478    0.0928 C   0  0  0  0  0  0  0  0  0  0  0  0
    3.7981   -1.2597    0.1463 C   0  0  0  0  0  0  0  0  0  0  0  0
    0.3778    0.4310    0.0150 C   0  0  0  0  0  0  0  0  0  0  0  0
   -0.2522    1.6734   -0.0084 C   0  0  0  0  0  0  0  0  0  0  0  0
   -1.6439    1.7390   -0.0623 C   0  0  0  0  0  0  0  0  0  0  0  0
   -2.3950    0.5628   -0.0924 C   0  0  0  0  0  0  0  0  0  0  0  0
   -3.8005    0.5780   -0.1469 C   0  0  0  0  0  0  0  0  0  0  0  0
   -4.5153   -0.6174   -0.1756 C   0  0  0  0  0  0  0  0  0  0  0  0
   -3.8302   -1.8267   -0.1500 C   0  0  0  0  0  0  0  0  0  0  0  0
   -2.4329   -1.8338   -0.0958 C   0  0  0  0  0  0  0  0  0  0  0  0
   -1.6960   -0.6570   -0.0663 C   0  0  0  0  0  0  0  0  0  0  0  0
   -0.3532   -0.7163   -0.0143 N   0  0  0  0  0  0  0  0  0  0  0  0
    5.7397   -0.3363    0.2223 H   0  0  0  0  0  0  0  0  0  0  0  0
    4.8238    1.9679    0.1887 H   0  0  0  0  0  0  0  0  0  0  0  0
    2.4224    2.3518    0.0959 H   0  0  0  0  0  0  0  0  0  0  0  0
    1.7648   -1.9210    0.0669 H   0  0  0  0  0  0  0  0  0  0  0  0
    4.1881   -2.2739    0.1606 H   0  0  0  0  0  0  0  0  0  0  0  0
    0.3056    2.6012    0.0140 H   0  0  0  0  0  0  0  0  0  0  0  0
   -2.1309    2.7104   -0.0804 H   0  0  0  0  0  0  0  0  0  0  0  0
   -4.3422    1.5206   -0.1671 H   0  0  0  0  0  0  0  0  0  0  0  0
   -5.6013   -0.6048   -0.2177 H   0  0  0  0  0  0  0  0  0  0  0  0
   -4.3757   -2.7665   -0.1719 H   0  0  0  0  0  0  0  0  0  0  0  0
   -1.9030   -2.7831   -0.0761 H   0  0  0  0  0  0  0  0  0  0  0  0
  1  2  2  0
  2  3  1  0
  3  4  2  0
  4  5  1  0
  5  6  2  0
  4  7  1  0
  7  8  1  0
  8  9  2  0
  9 10  1  0
 10 11  2  0
 11 12  1  0
 12 13  2  0
 13 14  1  0
 14 15  2  0
 15 16  1  0
  6  1  1  0
 16  7  2  0
 15 10  1  0
  1 17  1  0
  2 18  1  0
  3 19  1  0
  5 20  1  0
  6 21  1  0
  8 22  1  0
  9 23  1  0
 11 24  1  0
 12 25  1  0
 13 26  1  0
 14 27  1  0
M  END
$$$$

     RDKit          3D

 27 29  0  0  0  0  0  0  0  0999 V2000
   -4.6592    0.1852    0.3034 C   0  0  0  0  0  0  0  0  0  0  0  0
   -4.1673   -1.0595   -0.0721 C   0  0  0  0  0  0  0  0  0  0  0  0
   -2.7869   -1.2633   -0.2037 C   0  0  0  0  0  0  0  0  0  0  0  0
   -1.8578   -0.2314    0.0354 C   0  0  0  0  0  0  0  0  0  0  0  0
   -2.3951    1.0172    0.4145 C   0  0  0  0  0  0  0  0  0  0  0  0
   -3.7724    1.2261    0.5474 C   0  0  0  0  0  0  0  0  0  0  0  0
   -0.3853   -0.4137   -0.0952 C   0  0  0  0  0  0  0  0  0  0  0  0
    0.2216   -1.6123   -0.4640 C   0  0  0  0  0  0  0  0  0  0  0  0
    1.6111   -1.6803   -0.5580 C   0  0  0  0  0  0  0  0  0  0  0  0
    2.3830   -0.5502   -0.2829 C   0  0  0  0  0  0  0  0  0  0  0  0
    3.7871   -0.5696   -0.3641 C   0  0  0  0  0  0  0  0  0  0  0  0
    4.5231    0.5791   -0.0818 C   0  0  0  0  0  0  0  0  0  0  0  0
    3.8604    1.7459    0.2811 C   0  0  0  0  0  0  0  0  0  0  0  0
    2.4642    1.7575    0.3597 C   0  0  0  0  0  0  0  0  0  0  0  0
    1.7066    0.6268    0.0836 C   0  0  0  0  0  0  0  0  0  0  0  0
    0.3659    0.6886    0.1733 N   0  0  0  0  0  0  0  0  0  0  0  0
   -5.7292    0.3436    0.4056 H   0  0  0  0  0  0  0  0  0  0  0  0
   -4.8558   -1.8785   -0.2645 H   0  0  0  0  0  0  0  0  0  0  0  0
   -2.4632   -2.2564   -0.4996 H   0  0  0  0  0  0  0  0  0  0  0  0
   -1.7286    1.8559    0.6136 H   0  0  0  0  0  0  0  0  0  0  0  0
   -4.1437    2.2041    0.8416 H   0  0  0  0  0  0  0  0  0  0  0  0
   -0.3525   -2.5038   -0.6829 H   0  0  0  0  0  0  0  0  0  0  0  0
    2.0802   -2.6174   -0.8461 H   0  0  0  0  0  0  0  0  0  0  0  0
    4.3113   -1.4792   -0.6474 H   0  0  0  0  0  0  0  0  0  0  0  0
    5.6080    0.5632   -0.1449 H   0  0  0  0  0  0  0  0  0  0  0  0
    4.4225    2.6490    0.5039 H   0  0  0  0  0  0  0  0  0  0  0  0
    1.9520    2.6735    0.6441 H   0  0  0  0  0  0  0  0  0  0  0  0
  1  2  2  0
  2  3  1  0
  3  4  2  0
  4  5  1  0
  5  6  2  0
  4  7  1  0
  7  8  1  0
  8  9  2  0
  9 10  1  0
 10 11  2  0
 11 12  1  0
 12 13  2  0
 13 14  1  0
 14 15  2  0
 15 16  1  0
  6  1  1  0
 16  7  2  0
 15 10  1  0
  1 17  1  0
  2 18  1  0
  3 19  1  0
  5 20  1  0
  6 21  1  0
  8 22  1  0
  9 23  1  0
 11 24  1  0
 12 25  1  0
 13 26  1  0
 14 27  1  0
M  END
$$$$

     RDKit          3D

 27 29  0  0  0  0  0  0  0  0999 V2000
   -4.6718   -0.0956   -0.0324 C   0  0  0  0  0  0  0  0  0  0  0  0
   -4.1316    1.1118   -0.4600 C   0  0  0  0  0  0  0  0  0  0  0  0
   -2.7418    1.2856   -0.5101 C   0  0  0  0  0  0  0  0  0  0  0  0
   -1.8512    0.2602   -0.1353 C   0  0  0  0  0  0  0  0  0  0  0  0
   -2.4369   -0.9502    0.2930 C   0  0  0  0  0  0  0  0  0  0  0  0
   -3.8238   -1.1290    0.3450 C   0  0  0  0  0  0  0  0  0  0  0  0
   -0.3699    0.4114   -0.1765 C   0  0  0  0  0  0  0  0  0  0  0  0
    0.2837    1.5715   -0.5862 C   0  0  0  0  0  0  0  0  0  0  0  0
    1.6774    1.6125   -0.5888 C   0  0  0  0  0  0  0  0  0  0  0  0
    2.4069    0.4940   -0.1820 C   0  0  0  0  0  0  0  0  0  0  0  0
    3.8134    0.4872   -0.1673 C   0  0  0  0  0  0  0  0  0  0  0  0
    4.5062   -0.6488    0.2454 C   0  0  0  0  0  0  0  0  0  0  0  0
    3.7979   -1.7769    0.6432 C   0  0  0  0  0  0  0  0  0  0  0  0
    2.3997   -1.7626    0.6259 C   0  0  0  0  0  0  0  0  0  0  0  0
    1.6846   -0.6438    0.2191 C   0  0  0  0  0  0  0  0  0  0  0  0
    0.3400   -0.6796    0.2202 N   0  0  0  0  0  0  0  0  0  0  0  0
   -5.7491   -0.2307    0.0066 H   0  0  0  0  0  0  0  0  0  0  0  0
   -4.7895    1.9247   -0.7568 H   0  0  0  0  0  0  0  0  0  0  0  0
   -2.3796    2.2502   -0.8523 H   0  0  0  0  0  0  0  0  0  0  0  0
   -1.8018   -1.7819    0.5963 H   0  0  0  0  0  0  0  0  0  0  0  0
   -4.2331   -2.0779    0.6811 H   0  0  0  0  0  0  0  0  0  0  0  0
   -0.2569    2.4533   -0.9066 H   0  0  0  0  0  0  0  0  0  0  0  0
    2.1830    2.5196   -0.9091 H   0  0  0  0  0  0  0  0  0  0  0  0
    4.3731    1.3665   -0.4773 H   0  0  0  0  0  0  0  0  0  0  0  0
    5.5930   -0.6531    0.2564 H   0  0  0  0  0  0  0  0  0  0  0  0
    4.3261   -2.6698    0.9674 H   0  0  0  0  0  0  0  0  0  0  0  0
    1.8518   -2.6484    0.9383 H   0  0  0  0  0  0  0  0  0  0  0  0
  1  2  2  0
  2  3  1  0
  3  4  2  0
  4  5  1  0
  5  6  2  0
  4  7  1  0
  7  8  1  0
  8  9  2  0
  9 10  1  0
 10 11  2  0
 11 12  1  0
 12 13  2  0
 13 14  1  0
 14 15  2  0
 15 16  1  0
  6  1  1  0
 16  7  2  0
 15 10  1  0
  1 17  1  0
  2 18  1  0
  3 19  1  0
  5 20  1  0
  6 21  1  0
  8 22  1  0
  9 23  1  0
 11 24  1  0
 12 25  1  0
 13 26  1  0
 14 27  1  0
M  END
$$$$

     RDKit          3D

 27 29  0  0  0  0  0  0  0  0999 V2000
   -4.6479    0.2996   -0.3775 C   0  0  0  0  0  0  0  0  0  0  0  0
   -3.7133    1.1239   -0.9911 C   0  0  0  0  0  0  0  0  0  0  0  0
   -2.3465    0.9092   -0.7813 C   0  0  0  0  0  0  0  0  0  0  0  0
   -1.8675   -0.1306    0.0439 C   0  0  0  0  0  0  0  0  0  0  0  0
   -2.8439   -0.9462    0.6493 C   0  0  0  0  0  0  0  0  0  0  0  0
   -4.2139   -0.7355    0.4426 C   0  0  0  0  0  0  0  0  0  0  0  0
   -0.4043   -0.3267    0.2420 C   0  0  0  0  0  0  0  0  0  0  0  0
    0.1467   -1.3276    1.0391 C   0  0  0  0  0  0  0  0  0  0  0  0
    1.5322   -1.4274    1.1598 C   0  0  0  0  0  0  0  0  0  0  0  0
    2.3561   -0.5263    0.4832 C   0  0  0  0  0  0  0  0  0  0  0  0
    3.7585   -0.5868    0.5738 C   0  0  0  0  0  0  0  0  0  0  0  0
    4.5472    0.3308   -0.1168 C   0  0  0  0  0  0  0  0  0  0  0  0
    3.9390    1.3075   -0.8968 C   0  0  0  0  0  0  0  0  0  0  0  0
    2.5443    1.3613   -0.9820 C   0  0  0  0  0  0  0  0  0  0  0  0
    1.7347    0.4592   -0.3041 C   0  0  0  0  0  0  0  0  0  0  0  0
    0.3976    0.5524   -0.4181 N   0  0  0  0  0  0  0  0  0  0  0  0
   -5.7098    0.4632   -0.5380 H   0  0  0  0  0  0  0  0  0  0  0  0
   -4.0390    1.9367   -1.6347 H   0  0  0  0  0  0  0  0  0  0  0  0
   -1.6415    1.5749   -1.2783 H   0  0  0  0  0  0  0  0  0  0  0  0
   -2.5664   -1.7699    1.2999 H   0  0  0  0  0  0  0  0  0  0  0  0
   -4.9400   -1.3844    0.9259 H   0  0  0  0  0  0  0  0  0  0  0  0
   -0.4684   -2.0396    1.5749 H   0  0  0  0  0  0  0  0  0  0  0  0
    1.9576   -2.2098    1.7827 H   0  0  0  0  0  0  0  0  0  0  0  0
    4.2402   -1.3484    1.1823 H   0  0  0  0  0  0  0  0  0  0  0  0
    5.6307    0.2833   -0.0462 H   0  0  0  0  0  0  0  0  0  0  0  0
    4.5427    2.0294   -1.4406 H   0  0  0  0  0  0  0  0  0  0  0  0
    2.0748    2.1279   -1.5939 H   0  0  0  0  0  0  0  0  0  0  0  0
  1  2  2  0
  2  3  1  0
  3  4  2  0
  4  5  1  0
  5  6  2  0
  4  7  1  0
  7  8  1  0
  8  9  2  0
  9 10  1  0
 10 11  2  0
 11 12  1  0
 12 13  2  0
 13 14  1  0
 14 15  2  0
 15 16  1  0
  6  1  1  0
 16  7  2  0
 15 10  1  0
  1 17  1  0
  2 18  1  0
  3 19  1  0
  5 20  1  0
  6 21  1  0
  8 22  1  0
  9 23  1  0
 11 24  1  0
 12 25  1  0
 13 26  1  0
 14 27  1  0
M  END
$$$$

     RDKit          3D

 27 29  0  0  0  0  0  0  0  0999 V2000
   -4.6315   -0.5977    0.0185 C   0  0  0  0  0  0  0  0  0  0  0  0
   -3.6639   -1.5723    0.2266 C   0  0  0  0  0  0  0  0  0  0  0  0
   -2.3071   -1.2398    0.1443 C   0  0  0  0  0  0  0  0  0  0  0  0
   -1.8712    0.0704   -0.1472 C   0  0  0  0  0  0  0  0  0  0  0  0
   -2.8803    1.0321   -0.3522 C   0  0  0  0  0  0  0  0  0  0  0  0
   -4.2405    0.7044   -0.2709 C   0  0  0  0  0  0  0  0  0  0  0  0
   -0.4173    0.3845   -0.2261 C   0  0  0  0  0  0  0  0  0  0  0  0
    0.0921    1.6501   -0.5082 C   0  0  0  0  0  0  0  0  0  0  0  0
    1.4722    1.8413   -0.5596 C   0  0  0  0  0  0  0  0  0  0  0  0
    2.3324    0.7664   -0.3287 C   0  0  0  0  0  0  0  0  0  0  0  0
    3.7311    0.9097   -0.3697 C   0  0  0  0  0  0  0  0  0  0  0  0
    4.5569   -0.1872   -0.1338 C   0  0  0  0  0  0  0  0  0  0  0  0
    3.9893   -1.4257    0.1427 C   0  0  0  0  0  0  0  0  0  0  0  0
    2.5980   -1.5604    0.1818 C   0  0  0  0  0  0  0  0  0  0  0  0
    1.7520   -0.4836   -0.0496 C   0  0  0  0  0  0  0  0  0  0  0  0
    0.4200   -0.6642   -0.0009 N   0  0  0  0  0  0  0  0  0  0  0  0
   -5.6859   -0.8522    0.0816 H   0  0  0  0  0  0  0  0  0  0  0  0
   -3.9560   -2.5942    0.4536 H   0  0  0  0  0  0  0  0  0  0  0  0
   -1.5754   -2.0292    0.3132 H   0  0  0  0  0  0  0  0  0  0  0  0
   -2.6369    2.0651   -0.5813 H   0  0  0  0  0  0  0  0  0  0  0  0
   -4.9926    1.4721   -0.4349 H   0  0  0  0  0  0  0  0  0  0  0  0
   -0.5518    2.5012   -0.6912 H   0  0  0  0  0  0  0  0  0  0  0  0
    1.8651    2.8304   -0.7800 H   0  0  0  0  0  0  0  0  0  0  0  0
    4.1811    1.8759   -0.5854 H   0  0  0  0  0  0  0  0  0  0  0  0
    5.6375   -0.0755   -0.1656 H   0  0  0  0  0  0  0  0  0  0  0  0
    4.6222   -2.2895    0.3286 H   0  0  0  0  0  0  0  0  0  0  0  0
    2.1604   -2.5320    0.3986 H   0  0  0  0  0  0  0  0  0  0  0  0
  1  2  2  0
  2  3  1  0
  3  4  2  0
  4  5  1  0
  5  6  2  0
  4  7  1  0
  7  8  1  0
  8  9  2  0
  9 10  1  0
 10 11  2  0
 11 12  1  0
 12 13  2  0
 13 14  1  0
 14 15  2  0
 15 16  1  0
  6  1  1  0
 16  7  2  0
 15 10  1  0
  1 17  1  0
  2 18  1  0
  3 19  1  0
  5 20  1  0
  6 21  1  0
  8 22  1  0
  9 23  1  0
 11 24  1  0
 12 25  1  0
 13 26  1  0
 14 27  1  0
M  END
$$$$

     RDKit          3D

 27 29  0  0  0  0  0  0  0  0999 V2000
    4.6619    0.2635   -0.2131 C   0  0  0  0  0  0  0  0  0  0  0  0
    4.1716   -1.0364   -0.1660 C   0  0  0  0  0  0  0  0  0  0  0  0
    2.7907   -1.2691   -0.1091 C   0  0  0  0  0  0  0  0  0  0  0  0
    1.8594   -0.2119   -0.0976 C   0  0  0  0  0  0  0  0  0  0  0  0
    2.3950    1.0928   -0.1466 C   0  0  0  0  0  0  0  0  0  0  0  0
    3.7728    1.3307   -0.2034 C   0  0  0  0  0  0  0  0  0  0  0  0
    0.3862   -0.4237   -0.0377 C   0  0  0  0  0  0  0  0  0  0  0  0
   -0.2192   -1.6774    0.0126 C   0  0  0  0  0  0  0  0  0  0  0  0
   -1.6094   -1.7693    0.0668 C   0  0  0  0  0  0  0  0  0  0  0  0
   -2.3836   -0.6077    0.0701 C   0  0  0  0  0  0  0  0  0  0  0  0
   -3.7886   -0.6493    0.1237 C   0  0  0  0  0  0  0  0  0  0  0  0
   -4.5268    0.5322    0.1252 C   0  0  0  0  0  0  0  0  0  0  0  0
   -3.8656    1.7538    0.0735 C   0  0  0  0  0  0  0  0  0  0  0  0
   -2.4686    1.7872    0.0204 C   0  0  0  0  0  0  0  0  0  0  0  0
   -1.7087    0.6247    0.0176 C   0  0  0  0  0  0  0  0  0  0  0  0
   -0.3673    0.7094   -0.0345 N   0  0  0  0  0  0  0  0  0  0  0  0
    5.7322    0.4443   -0.2572 H   0  0  0  0  0  0  0  0  0  0  0  0
    4.8618   -1.8763   -0.1733 H   0  0  0  0  0  0  0  0  0  0  0  0
    2.4684   -2.3052   -0.0741 H   0  0  0  0  0  0  0  0  0  0  0  0
    1.7267    1.9534   -0.1406 H   0  0  0  0  0  0  0  0  0  0  0  0
    4.1428    2.3518   -0.2399 H   0  0  0  0  0  0  0  0  0  0  0  0
    0.3567   -2.5944    0.0113 H   0  0  0  0  0  0  0  0  0  0  0  0
   -2.0773   -2.7494    0.1059 H   0  0  0  0  0  0  0  0  0  0  0  0
   -4.3117   -1.6018    0.1643 H   0  0  0  0  0  0  0  0  0  0  0  0
   -5.6124    0.4991    0.1666 H   0  0  0  0  0  0  0  0  0  0  0  0
   -4.4295    2.6829    0.0741 H   0  0  0  0  0  0  0  0  0  0  0  0
   -1.9575    2.7461   -0.0199 H   0  0  0  0  0  0  0  0  0  0  0  0
  1  2  2  0
  2  3  1  0
  3  4  2  0
  4  5  1  0
  5  6  2  0
  4  7  1  0
  7  8  1  0
  8  9  2  0
  9 10  1  0
 10 11  2  0
 11 12  1  0
 12 13  2  0
 13 14  1  0
 14 15  2  0
 15 16  1  0
  6  1  1  0
 16  7  2  0
 15 10  1  0
  1 17  1  0
  2 18  1  0
  3 19  1  0
  5 20  1  0
  6 21  1  0
  8 22  1  0
  9 23  1  0
 11 24  1  0
 12 25  1  0
 13 26  1  0
 14 27  1  0
M  END
$$$$
