
     RDKit          3D

 27 29  0  0  0  0  0  0  0  0999 V2000
   -4.6569   -0.2254   -0.3562 C   0  0  0  0  0  0  0  0  0  0  0  0
   -3.8027   -1.2522    0.0251 C   0  0  0  0  0  0  0  0  0  0  0  0
   -2.4215   -1.0324    0.0711 C   0  0  0  0  0  0  0  0  0  0  0  0
   -1.8478    0.2136   -0.2603 C   0  0  0  0  0  0  0  0  0  0  0  0
   -2.7444    1.2311   -0.6423 C   0  0  0  0  0  0  0  0  0  0  0  0
   -4.1286    1.0163   -0.6900 C   0  0  0  0  0  0  0  0  0  0  0  0
   -0.3723    0.4079   -0.1990 C   0  0  0  0  0  0  0  0  0  0  0  0
    0.2695    1.6046   -0.5099 C   0  0  0  0  0  0  0  0  0  0  0  0
    1.6587    1.6846   -0.4209 C   0  0  0  0  0  0  0  0  0  0  0  0
    2.3955    0.5680   -0.0219 C   0  0  0  0  0  0  0  0  0  0  0  0
    3.7978    0.5998    0.0828 C   0  0  0  0  0  0  0  0  0  0  0  0
    4.4981   -0.5355    0.4845 C   0  0  0  0  0  0  0  0  0  0  0  0
    3.8016   -1.7013    0.7816 C   0  0  0  0  0  0  0  0  0  0  0  0
    2.4075   -1.7252    0.6751 C   0  0  0  0  0  0  0  0  0  0  0  0
    1.6850   -0.6079    0.2771 C   0  0  0  0  0  0  0  0  0  0  0  0
    0.3447   -0.6812    0.1900 N   0  0  0  0  0  0  0  0  0  0  0  0
   -5.7298   -0.3923   -0.3930 H   0  0  0  0  0  0  0  0  0  0  0  0
   -4.2027   -2.2277    0.2886 H   0  0  0  0  0  0  0  0  0  0  0  0
   -1.7813   -1.8602    0.3745 H   0  0  0  0  0  0  0  0  0  0  0  0
   -2.3915    2.2212   -0.9141 H   0  0  0  0  0  0  0  0  0  0  0  0
   -4.7914    1.8243   -0.9893 H   0  0  0  0  0  0  0  0  0  0  0  0
   -0.2770    2.4858   -0.8219 H   0  0  0  0  0  0  0  0  0  0  0  0
    2.1550    2.6202   -0.6644 H   0  0  0  0  0  0  0  0  0  0  0  0
    4.3484    1.5087   -0.1481 H   0  0  0  0  0  0  0  0  0  0  0  0
    5.5817   -0.5101    0.5652 H   0  0  0  0  0  0  0  0  0  0  0  0
    4.3358   -2.5940    1.0961 H   0  0  0  0  0  0  0  0  0  0  0  0
    1.8687   -2.6403    0.9089 H   0  0  0  0  0  0  0  0  0  0  0  0
  1  2  2  0
  2  3  1  0
  3  4  2  0
  4  5  1  0
  5  6  2  0
  4  7  1  0
  7  8  1  0
  8  9  2  0
  9 10  1  0
 10 11  2  0
 11 12  1  0
 12 13  2  0
 13 14  1  0
 14 15  2  0
 15 16  1  0
  6  1  1  0
 16  7  2  0
 15 10  1  0
  1 17  1  0
  2 18  1  0
  3 19  1  0
  5 20  1  0
  6 21  1  0
  8 22  1  0
  9 23  1  0
 11 24  1  0
 12 25  1  0
 13 26  1  0
 14 27  1  0
M  END
