
     RDKit          3D

 16 16  0  0  0  0  0  0  0  0999 V2000
   -3.2460    0.2892    0.8118 O   0  0  0  0  0  0  0  0  0  0  0  0
   -1.9518   -0.2727    0.6139 C   0  0  0  0  0  0  0  0  0  0  0  0
   -0.9368    0.8275    0.3143 C   0  0  0  0  0  0  0  0  0  0  0  0
    0.4384    0.2767    0.0947 C   0  0  0  0  0  0  0  0  0  0  0  0
    1.5144    0.0864    1.4144 S   0  0  0  0  0  0  0  0  0  0  0  0
    2.7432   -0.5388    0.4038 C   0  0  0  0  0  0  0  0  0  0  0  0
    2.3475   -0.6006   -0.9133 C   0  0  0  0  0  0  0  0  0  0  0  0
    1.0156   -0.1278   -1.0927 C   0  0  0  0  0  0  0  0  0  0  0  0
   -3.2128    0.8152    1.6295 H   0  0  0  0  0  0  0  0  0  0  0  0
   -1.6818   -0.8410    1.5105 H   0  0  0  0  0  0  0  0  0  0  0  0
   -2.0181   -0.9788   -0.2207 H   0  0  0  0  0  0  0  0  0  0  0  0
   -1.2598    1.3843   -0.5749 H   0  0  0  0  0  0  0  0  0  0  0  0
   -0.9383    1.5640    1.1279 H   0  0  0  0  0  0  0  0  0  0  0  0
    3.6965   -0.8295    0.8234 H   0  0  0  0  0  0  0  0  0  0  0  0
    2.9834   -0.9664   -1.7102 H   0  0  0  0  0  0  0  0  0  0  0  0
    0.5062   -0.0878   -2.0485 H   0  0  0  0  0  0  0  0  0  0  0  0
  1  2  1  0
  2  3  1  0
  3  4  1  0
  4  5  1  0
  5  6  1  0
  6  7  2  0
  7  8  1  0
  8  4  2  0
  1  9  1  0
  2 10  1  0
  2 11  1  0
  3 12  1  0
  3 13  1  0
  6 14  1  0
  7 15  1  0
  8 16  1  0
M  END
$$$$

     RDKit          3D

 16 16  0  0  0  0  0  0  0  0999 V2000
   -2.2086    1.0659    1.1644 O   0  0  0  0  0  0  0  0  0  0  0  0
   -2.0458    0.2774   -0.0132 C   0  0  0  0  0  0  0  0  0  0  0  0
   -1.0787   -0.8847    0.2184 C   0  0  0  0  0  0  0  0  0  0  0  0
    0.3566   -0.4370    0.2317 C   0  0  0  0  0  0  0  0  0  0  0  0
    1.3976   -0.8345   -1.0709 S   0  0  0  0  0  0  0  0  0  0  0  0
    2.7211   -0.0354   -0.3418 C   0  0  0  0  0  0  0  0  0  0  0  0
    2.3829    0.5256    0.8687 C   0  0  0  0  0  0  0  0  0  0  0  0
    1.0174    0.2927    1.2006 C   0  0  0  0  0  0  0  0  0  0  0  0
   -2.5716    0.4888    1.8574 H   0  0  0  0  0  0  0  0  0  0  0  0
   -3.0342   -0.1075   -0.2850 H   0  0  0  0  0  0  0  0  0  0  0  0
   -1.7053    0.9340   -0.8206 H   0  0  0  0  0  0  0  0  0  0  0  0
   -1.2313   -1.6329   -0.5689 H   0  0  0  0  0  0  0  0  0  0  0  0
   -1.3000   -1.3730    1.1754 H   0  0  0  0  0  0  0  0  0  0  0  0
    3.6822   -0.0131   -0.8367 H   0  0  0  0  0  0  0  0  0  0  0  0
    3.0796    1.0798    1.4853 H   0  0  0  0  0  0  0  0  0  0  0  0
    0.5382    0.6537    2.1032 H   0  0  0  0  0  0  0  0  0  0  0  0
  1  2  1  0
  2  3  1  0
  3  4  1  0
  4  5  1  0
  5  6  1  0
  6  7  2  0
  7  8  1  0
  8  4  2  0
  1  9  1  0
  2 10  1  0
  2 11  1  0
  3 12  1  0
  3 13  1  0
  6 14  1  0
  7 15  1  0
  8 16  1  0
M  END
$$$$

     RDKit          3D

 16 16  0  0  0  0  0  0  0  0999 V2000
   -2.2183    0.7426   -0.9252 O   0  0  0  0  0  0  0  0  0  0  0  0
   -1.9138   -0.5908   -0.5218 C   0  0  0  0  0  0  0  0  0  0  0  0
   -1.0965   -0.5840    0.7694 C   0  0  0  0  0  0  0  0  0  0  0  0
    0.3405   -0.2139    0.5239 C   0  0  0  0  0  0  0  0  0  0  0  0
    1.5462   -1.4278    0.4285 S   0  0  0  0  0  0  0  0  0  0  0  0
    2.7778   -0.2721    0.1618 C   0  0  0  0  0  0  0  0  0  0  0  0
    2.2855    1.0133    0.1427 C   0  0  0  0  0  0  0  0  0  0  0  0
    0.8773    1.0469    0.3523 C   0  0  0  0  0  0  0  0  0  0  0  0
   -2.6578    0.6825   -1.7907 H   0  0  0  0  0  0  0  0  0  0  0  0
   -2.8654   -1.1047   -0.3523 H   0  0  0  0  0  0  0  0  0  0  0  0
   -1.3832   -1.0946   -1.3368 H   0  0  0  0  0  0  0  0  0  0  0  0
   -1.1512   -1.5762    1.2335 H   0  0  0  0  0  0  0  0  0  0  0  0
   -1.5272    0.1309    1.4814 H   0  0  0  0  0  0  0  0  0  0  0  0
    3.8026   -0.5908    0.0308 H   0  0  0  0  0  0  0  0  0  0  0  0
    2.9043    1.8877   -0.0153 H   0  0  0  0  0  0  0  0  0  0  0  0
    0.2792    1.9509    0.3697 H   0  0  0  0  0  0  0  0  0  0  0  0
  1  2  1  0
  2  3  1  0
  3  4  1  0
  4  5  1  0
  5  6  1  0
  6  7  2  0
  7  8  1  0
  8  4  2  0
  1  9  1  0
  2 10  1  0
  2 11  1  0
  3 12  1  0
  3 13  1  0
  6 14  1  0
  7 15  1  0
  8 16  1  0
M  END
$$$$

     RDKit          3D

 16 16  0  0  0  0  0  0  0  0999 V2000
   -2.3702    0.6179    0.9235 O   0  0  0  0  0  0  0  0  0  0  0  0
   -1.8680   -0.7153    0.8615 C   0  0  0  0  0  0  0  0  0  0  0  0
   -0.9454   -0.8823   -0.3452 C   0  0  0  0  0  0  0  0  0  0  0  0
    0.4069   -0.2677   -0.1090 C   0  0  0  0  0  0  0  0  0  0  0  0
    1.7401   -1.2469    0.3382 S   0  0  0  0  0  0  0  0  0  0  0  0
    2.7903    0.1010    0.3993 C   0  0  0  0  0  0  0  0  0  0  0  0
    2.1429    1.2755    0.0885 C   0  0  0  0  0  0  0  0  0  0  0  0
    0.7658    1.0623   -0.2055 C   0  0  0  0  0  0  0  0  0  0  0  0
   -2.8747    0.6915    1.7517 H   0  0  0  0  0  0  0  0  0  0  0  0
   -1.3544   -0.9441    1.8014 H   0  0  0  0  0  0  0  0  0  0  0  0
   -2.7296   -1.3832    0.7612 H   0  0  0  0  0  0  0  0  0  0  0  0
   -0.8351   -1.9507   -0.5670 H   0  0  0  0  0  0  0  0  0  0  0  0
   -1.3958   -0.4129   -1.2286 H   0  0  0  0  0  0  0  0  0  0  0  0
    3.8307   -0.0324    0.6611 H   0  0  0  0  0  0  0  0  0  0  0  0
    2.6321    2.2414    0.0738 H   0  0  0  0  0  0  0  0  0  0  0  0
    0.0644    1.8459   -0.4689 H   0  0  0  0  0  0  0  0  0  0  0  0
  1  2  1  0
  2  3  1  0
  3  4  1  0
  4  5  1  0
  5  6  1  0
  6  7  2  0
  7  8  1  0
  8  4  2  0
  1  9  1  0
  2 10  1  0
  2 11  1  0
  3 12  1  0
  3 13  1  0
  6 14  1  0
  7 15  1  0
  8 16  1  0
M  END
$$$$

     RDKit          3D

 16 16  0  0  0  0  0  0  0  0999 V2000
   -3.2676   -0.1033    0.4307 O   0  0  0  0  0  0  0  0  0  0  0  0
   -1.8753   -0.4040    0.4644 C   0  0  0  0  0  0  0  0  0  0  0  0
   -1.0978    0.5900   -0.3945 C   0  0  0  0  0  0  0  0  0  0  0  0
    0.3725    0.3050   -0.3896 C   0  0  0  0  0  0  0  0  0  0  0  0
    1.3878    1.0205    0.7906 S   0  0  0  0  0  0  0  0  0  0  0  0
    2.7756    0.2519    0.1535 C   0  0  0  0  0  0  0  0  0  0  0  0
    2.4769   -0.5326   -0.9375 C   0  0  0  0  0  0  0  0  0  0  0  0
    1.0879   -0.5011   -1.2528 C   0  0  0  0  0  0  0  0  0  0  0  0
   -3.3916    0.7510    0.8793 H   0  0  0  0  0  0  0  0  0  0  0  0
   -1.7451   -1.4256    0.0918 H   0  0  0  0  0  0  0  0  0  0  0  0
   -1.5437   -0.3852    1.5082 H   0  0  0  0  0  0  0  0  0  0  0  0
   -1.2995    1.6128   -0.0513 H   0  0  0  0  0  0  0  0  0  0  0  0
   -1.4792    0.5540   -1.4232 H   0  0  0  0  0  0  0  0  0  0  0  0
    3.7432    0.4132    0.6085 H   0  0  0  0  0  0  0  0  0  0  0  0
    3.2194   -1.1010   -1.4841 H   0  0  0  0  0  0  0  0  0  0  0  0
    0.6364   -1.0453   -2.0742 H   0  0  0  0  0  0  0  0  0  0  0  0
  1  2  1  0
  2  3  1  0
  3  4  1  0
  4  5  1  0
  5  6  1  0
  6  7  2  0
  7  8  1  0
  8  4  2  0
  1  9  1  0
  2 10  1  0
  2 11  1  0
  3 12  1  0
  3 13  1  0
  6 14  1  0
  7 15  1  0
  8 16  1  0
M  END
$$$$

     RDKit          3D

 16 16  0  0  0  0  0  0  0  0999 V2000
   -2.3110    0.9480    0.7111 O   0  0  0  0  0  0  0  0  0  0  0  0
   -2.0130   -0.4413    0.5909 C   0  0  0  0  0  0  0  0  0  0  0  0
   -0.9751   -0.6713   -0.5068 C   0  0  0  0  0  0  0  0  0  0  0  0
    0.4115   -0.3013   -0.0567 C   0  0  0  0  0  0  0  0  0  0  0  0
    1.5099   -1.5118    0.4576 S   0  0  0  0  0  0  0  0  0  0  0  0
    2.7349   -0.3589    0.7639 C   0  0  0  0  0  0  0  0  0  0  0  0
    2.3199    0.9235    0.4839 C   0  0  0  0  0  0  0  0  0  0  0  0
    0.9775    0.9566    0.0094 C   0  0  0  0  0  0  0  0  0  0  0  0
   -2.9036    1.0447    1.4763 H   0  0  0  0  0  0  0  0  0  0  0  0
   -1.6688   -0.8146    1.5613 H   0  0  0  0  0  0  0  0  0  0  0  0
   -2.9450   -0.9525    0.3291 H   0  0  0  0  0  0  0  0  0  0  0  0
   -0.9997   -1.7255   -0.8082 H   0  0  0  0  0  0  0  0  0  0  0  0
   -1.2284   -0.0752   -1.3923 H   0  0  0  0  0  0  0  0  0  0  0  0
    3.6993   -0.6766    1.1353 H   0  0  0  0  0  0  0  0  0  0  0  0
    2.9474    1.7963    0.6141 H   0  0  0  0  0  0  0  0  0  0  0  0
    0.4440    1.8596   -0.2649 H   0  0  0  0  0  0  0  0  0  0  0  0
  1  2  1  0
  2  3  1  0
  3  4  1  0
  4  5  1  0
  5  6  1  0
  6  7  2  0
  7  8  1  0
  8  4  2  0
  1  9  1  0
  2 10  1  0
  2 11  1  0
  3 12  1  0
  3 13  1  0
  6 14  1  0
  7 15  1  0
  8 16  1  0
M  END
$$$$

     RDKit          3D

 16 16  0  0  0  0  0  0  0  0999 V2000
   -2.2523    1.3286   -0.7380 O   0  0  0  0  0  0  0  0  0  0  0  0
   -2.0088   -0.0731   -0.8158 C   0  0  0  0  0  0  0  0  0  0  0  0
   -1.2848   -0.5854    0.4299 C   0  0  0  0  0  0  0  0  0  0  0  0
    0.1677   -0.1932    0.4352 C   0  0  0  0  0  0  0  0  0  0  0  0
    0.6695    1.2650    1.1830 S   0  0  0  0  0  0  0  0  0  0  0  0
    2.3058    0.9850    0.7766 C   0  0  0  0  0  0  0  0  0  0  0  0
    2.4727   -0.1956    0.0886 C   0  0  0  0  0  0  0  0  0  0  0  0
    1.2375   -0.8781   -0.1072 C   0  0  0  0  0  0  0  0  0  0  0  0
   -1.3912    1.7616   -0.5931 H   0  0  0  0  0  0  0  0  0  0  0  0
   -2.9841   -0.5627   -0.9005 H   0  0  0  0  0  0  0  0  0  0  0  0
   -1.4467   -0.2787   -1.7330 H   0  0  0  0  0  0  0  0  0  0  0  0
   -1.3486   -1.6802    0.4546 H   0  0  0  0  0  0  0  0  0  0  0  0
   -1.7802   -0.2108    1.3338 H   0  0  0  0  0  0  0  0  0  0  0  0
    3.0668    1.6976    1.0639 H   0  0  0  0  0  0  0  0  0  0  0  0
    3.4353   -0.5534   -0.2556 H   0  0  0  0  0  0  0  0  0  0  0  0
    1.1414   -1.8266   -0.6224 H   0  0  0  0  0  0  0  0  0  0  0  0
  1  2  1  0
  2  3  1  0
  3  4  1  0
  4  5  1  0
  5  6  1  0
  6  7  2  0
  7  8  1  0
  8  4  2  0
  1  9  1  0
  2 10  1  0
  2 11  1  0
  3 12  1  0
  3 13  1  0
  6 14  1  0
  7 15  1  0
  8 16  1  0
M  END
$$$$

     RDKit          3D

 16 16  0  0  0  0  0  0  0  0999 V2000
   -2.2523   -0.6574    1.2641 O   0  0  0  0  0  0  0  0  0  0  0  0
   -1.8908    0.6629    0.8626 C   0  0  0  0  0  0  0  0  0  0  0  0
   -1.0675    0.6521   -0.4264 C   0  0  0  0  0  0  0  0  0  0  0  0
    0.3566    0.2323   -0.1887 C   0  0  0  0  0  0  0  0  0  0  0  0
    1.6249    1.3807   -0.2936 S   0  0  0  0  0  0  0  0  0  0  0  0
    2.8089    0.2025    0.0691 C   0  0  0  0  0  0  0  0  0  0  0  0
    2.2556   -1.0419    0.2681 C   0  0  0  0  0  0  0  0  0  0  0  0
    0.8392   -1.0251    0.1180 C   0  0  0  0  0  0  0  0  0  0  0  0
   -2.7887   -1.0454    0.5522 H   0  0  0  0  0  0  0  0  0  0  0  0
   -2.8203    1.2206    0.7076 H   0  0  0  0  0  0  0  0  0  0  0  0
   -1.3473    1.1349    1.6875 H   0  0  0  0  0  0  0  0  0  0  0  0
   -1.5164   -0.0355   -1.1536 H   0  0  0  0  0  0  0  0  0  0  0  0
   -1.0941    1.6546   -0.8704 H   0  0  0  0  0  0  0  0  0  0  0  0
    3.8528    0.4793    0.1216 H   0  0  0  0  0  0  0  0  0  0  0  0
    2.8375   -1.9217    0.5133 H   0  0  0  0  0  0  0  0  0  0  0  0
    0.2018   -1.8930    0.2409 H   0  0  0  0  0  0  0  0  0  0  0  0
  1  2  1  0
  2  3  1  0
  3  4  1  0
  4  5  1  0
  5  6  1  0
  6  7  2  0
  7  8  1  0
  8  4  2  0
  1  9  1  0
  2 10  1  0
  2 11  1  0
  3 12  1  0
  3 13  1  0
  6 14  1  0
  7 15  1  0
  8 16  1  0
M  END
$$$$
