
     RDKit          3D

 16 16  0  0  0  0  0  0  0  0999 V2000
   -3.3010    0.0097    0.4332 O   0  0  0  0  0  0  0  0  0  0  0  0
   -1.9396   -0.4103    0.4353 C   0  0  0  0  0  0  0  0  0  0  0  0
   -1.0361    0.7186   -0.0542 C   0  0  0  0  0  0  0  0  0  0  0  0
    0.4059    0.3149   -0.0715 C   0  0  0  0  0  0  0  0  0  0  0  0
    1.3887    0.5594    1.3106 S   0  0  0  0  0  0  0  0  0  0  0  0
    2.7569   -0.1088    0.5336 C   0  0  0  0  0  0  0  0  0  0  0  0
    2.4764   -0.5089   -0.7534 C   0  0  0  0  0  0  0  0  0  0  0  0
    1.1177   -0.2627   -1.1042 C   0  0  0  0  0  0  0  0  0  0  0  0
   -3.3928    0.7023    1.1103 H   0  0  0  0  0  0  0  0  0  0  0  0
   -1.6784   -0.7282    1.4506 H   0  0  0  0  0  0  0  0  0  0  0  0
   -1.8588   -1.2851   -0.2187 H   0  0  0  0  0  0  0  0  0  0  0  0
   -1.1860    1.6093    0.5691 H   0  0  0  0  0  0  0  0  0  0  0  0
   -1.3491    1.0200   -1.0622 H   0  0  0  0  0  0  0  0  0  0  0  0
    3.7009   -0.1749    1.0570 H   0  0  0  0  0  0  0  0  0  0  0  0
    3.2109   -0.9557   -1.4122 H   0  0  0  0  0  0  0  0  0  0  0  0
    0.6844   -0.4996   -2.0689 H   0  0  0  0  0  0  0  0  0  0  0  0
  1  2  1  0
  2  3  1  0
  3  4  1  0
  4  5  1  0
  5  6  1  0
  6  7  2  0
  7  8  1  0
  8  4  2  0
  1  9  1  0
  2 10  1  0
  2 11  1  0
  3 12  1  0
  3 13  1  0
  6 14  1  0
  7 15  1  0
  8 16  1  0
M  END
