
     RDKit          3D

 24 25  0  0  0  0  0  0  0  0999 V2000
    3.3280   -0.0022   -0.1774 C   0  0  0  0  0  0  0  0  0  0  0  0
    2.0587   -0.6522    0.0287 N   0  0  0  0  0  0  0  0  0  0  0  0
    1.8658   -1.9766    0.3209 C   0  0  0  0  0  0  0  0  0  0  0  0
    0.5858   -2.2645    0.4506 N   0  0  0  0  0  0  0  0  0  0  0  0
   -0.0516   -1.0805    0.2327 C   0  0  0  0  0  0  0  0  0  0  0  0
    0.8244   -0.0712   -0.0289 C   0  0  0  0  0  0  0  0  0  0  0  0
    0.4176    1.2649   -0.2915 C   0  0  0  0  0  0  0  0  0  0  0  0
    1.2156    2.1675   -0.5262 O   0  0  0  0  0  0  0  0  0  0  0  0
   -0.9705    1.4255   -0.2516 N   0  0  0  0  0  0  0  0  0  0  0  0
   -1.5132    2.7460   -0.5036 C   0  0  0  0  0  0  0  0  0  0  0  0
   -1.9093    0.4066    0.0155 C   0  0  0  0  0  0  0  0  0  0  0  0
   -3.1202    0.6478    0.0290 O   0  0  0  0  0  0  0  0  0  0  0  0
   -1.4092   -0.8726    0.2610 N   0  0  0  0  0  0  0  0  0  0  0  0
   -2.3082   -1.9765    0.5441 C   0  0  0  0  0  0  0  0  0  0  0  0
    3.4400    0.7877    0.5694 H   0  0  0  0  0  0  0  0  0  0  0  0
    4.1338   -0.7322   -0.0651 H   0  0  0  0  0  0  0  0  0  0  0  0
    3.3461    0.4135   -1.1879 H   0  0  0  0  0  0  0  0  0  0  0  0
    2.6817   -2.6807    0.4271 H   0  0  0  0  0  0  0  0  0  0  0  0
   -0.7370    3.4888   -0.7035 H   0  0  0  0  0  0  0  0  0  0  0  0
   -2.1863    2.6954   -1.3658 H   0  0  0  0  0  0  0  0  0  0  0  0
   -2.0929    3.0648    0.3690 H   0  0  0  0  0  0  0  0  0  0  0  0
   -3.3553   -1.6629    0.5333 H   0  0  0  0  0  0  0  0  0  0  0  0
   -2.1687   -2.7542   -0.2135 H   0  0  0  0  0  0  0  0  0  0  0  0
   -2.0754   -2.3822    1.5338 H   0  0  0  0  0  0  0  0  0  0  0  0
  1  2  1  0
  2  3  1  0
  3  4  2  0
  4  5  1  0
  5  6  2  0
  6  7  1  0
  7  8  2  0
  7  9  1  0
  9 10  1  0
  9 11  1  0
 11 12  2  0
 11 13  1  0
 13 14  1  0
  6  2  1  0
 13  5  1  0
  1 15  1  0
  1 16  1  0
  1 17  1  0
  3 18  1  0
 10 19  1  0
 10 20  1  0
 10 21  1  0
 14 22  1  0
 14 23  1  0
 14 24  1  0
M  END
$$$$

     RDKit          3D

 24 25  0  0  0  0  0  0  0  0999 V2000
    3.2335   -0.6947   -0.4113 C   0  0  0  0  0  0  0  0  0  0  0  0
    1.8634   -1.0767   -0.1812 N   0  0  0  0  0  0  0  0  0  0  0  0
    1.3975   -2.3533   -0.0083 C   0  0  0  0  0  0  0  0  0  0  0  0
    0.0931   -2.3732    0.1825 N   0  0  0  0  0  0  0  0  0  0  0  0
   -0.2773   -1.0635    0.1280 C   0  0  0  0  0  0  0  0  0  0  0  0
    0.7862   -0.2424   -0.0940 C   0  0  0  0  0  0  0  0  0  0  0  0
    0.6717    1.1706   -0.1941 C   0  0  0  0  0  0  0  0  0  0  0  0
    1.6369    1.9019   -0.3944 O   0  0  0  0  0  0  0  0  0  0  0  0
   -0.6434    1.6191   -0.0405 N   0  0  0  0  0  0  0  0  0  0  0  0
   -0.8930    3.0449   -0.1221 C   0  0  0  0  0  0  0  0  0  0  0  0
   -1.7698    0.8015    0.1904 C   0  0  0  0  0  0  0  0  0  0  0  0
   -2.8958    1.2933    0.3131 O   0  0  0  0  0  0  0  0  0  0  0  0
   -1.5529   -0.5743    0.2725 N   0  0  0  0  0  0  0  0  0  0  0  0
   -2.6585   -1.4847    0.5080 C   0  0  0  0  0  0  0  0  0  0  0  0
    3.2948   -0.1821   -1.3745 H   0  0  0  0  0  0  0  0  0  0  0  0
    3.5521   -0.0356    0.4001 H   0  0  0  0  0  0  0  0  0  0  0  0
    3.8630   -1.5880   -0.4288 H   0  0  0  0  0  0  0  0  0  0  0  0
    2.0423   -3.2231   -0.0299 H   0  0  0  0  0  0  0  0  0  0  0  0
   -1.3464    3.3809    0.8163 H   0  0  0  0  0  0  0  0  0  0  0  0
    0.0174    3.6219   -0.3019 H   0  0  0  0  0  0  0  0  0  0  0  0
   -1.6007    3.2361   -0.9355 H   0  0  0  0  0  0  0  0  0  0  0  0
   -3.6101   -0.9551    0.6021 H   0  0  0  0  0  0  0  0  0  0  0  0
   -2.4742   -2.0388    1.4339 H   0  0  0  0  0  0  0  0  0  0  0  0
   -2.7298   -2.1847   -0.3305 H   0  0  0  0  0  0  0  0  0  0  0  0
  1  2  1  0
  2  3  1  0
  3  4  2  0
  4  5  1  0
  5  6  2  0
  6  7  1  0
  7  8  2  0
  7  9  1  0
  9 10  1  0
  9 11  1  0
 11 12  2  0
 11 13  1  0
 13 14  1  0
  6  2  1  0
 13  5  1  0
  1 15  1  0
  1 16  1  0
  1 17  1  0
  3 18  1  0
 10 19  1  0
 10 20  1  0
 10 21  1  0
 14 22  1  0
 14 23  1  0
 14 24  1  0
M  END
$$$$

     RDKit          3D

 24 25  0  0  0  0  0  0  0  0999 V2000
    2.8926   -1.6514    0.1117 C   0  0  0  0  0  0  0  0  0  0  0  0
    2.1029   -0.4723   -0.1375 N   0  0  0  0  0  0  0  0  0  0  0  0
    2.5735    0.7414   -0.5644 C   0  0  0  0  0  0  0  0  0  0  0  0
    1.6001    1.6202   -0.6990 N   0  0  0  0  0  0  0  0  0  0  0  0
    0.4758    0.9376   -0.3447 C   0  0  0  0  0  0  0  0  0  0  0  0
    0.7506   -0.3495    0.0052 C   0  0  0  0  0  0  0  0  0  0  0  0
   -0.2466   -1.2750    0.4156 C   0  0  0  0  0  0  0  0  0  0  0  0
    0.0118   -2.4332    0.7291 O   0  0  0  0  0  0  0  0  0  0  0  0
   -1.5301   -0.7210    0.4196 N   0  0  0  0  0  0  0  0  0  0  0  0
   -2.6379   -1.5660    0.8204 C   0  0  0  0  0  0  0  0  0  0  0  0
   -1.8548    0.6053    0.0646 C   0  0  0  0  0  0  0  0  0  0  0  0
   -3.0231    1.0033    0.1004 O   0  0  0  0  0  0  0  0  0  0  0  0
   -0.8040    1.4366   -0.3245 N   0  0  0  0  0  0  0  0  0  0  0  0
   -1.0531    2.8149   -0.7052 C   0  0  0  0  0  0  0  0  0  0  0  0
    2.5453   -2.4492   -0.5496 H   0  0  0  0  0  0  0  0  0  0  0  0
    2.7721   -1.9360    1.1599 H   0  0  0  0  0  0  0  0  0  0  0  0
    3.9445   -1.4356   -0.0927 H   0  0  0  0  0  0  0  0  0  0  0  0
    3.6217    0.9303   -0.7603 H   0  0  0  0  0  0  0  0  0  0  0  0
   -3.1342   -1.1150    1.6860 H   0  0  0  0  0  0  0  0  0  0  0  0
   -3.3591   -1.6207   -0.0016 H   0  0  0  0  0  0  0  0  0  0  0  0
   -2.3215   -2.5788    1.0817 H   0  0  0  0  0  0  0  0  0  0  0  0
   -0.4933    3.4770   -0.0370 H   0  0  0  0  0  0  0  0  0  0  0  0
   -2.1140    3.0705   -0.6410 H   0  0  0  0  0  0  0  0  0  0  0  0
   -0.7192    2.9667   -1.7366 H   0  0  0  0  0  0  0  0  0  0  0  0
  1  2  1  0
  2  3  1  0
  3  4  2  0
  4  5  1  0
  5  6  2  0
  6  7  1  0
  7  8  2  0
  7  9  1  0
  9 10  1  0
  9 11  1  0
 11 12  2  0
 11 13  1  0
 13 14  1  0
  6  2  1  0
 13  5  1  0
  1 15  1  0
  1 16  1  0
  1 17  1  0
  3 18  1  0
 10 19  1  0
 10 20  1  0
 10 21  1  0
 14 22  1  0
 14 23  1  0
 14 24  1  0
M  END
$$$$

     RDKit          3D

 24 25  0  0  0  0  0  0  0  0999 V2000
    3.3304    0.0026   -0.1236 C   0  0  0  0  0  0  0  0  0  0  0  0
    2.0578   -0.6548    0.0323 N   0  0  0  0  0  0  0  0  0  0  0  0
    1.8599   -1.9910    0.2606 C   0  0  0  0  0  0  0  0  0  0  0  0
    0.5779   -2.2832    0.3563 N   0  0  0  0  0  0  0  0  0  0  0  0
   -0.0556   -1.0899    0.1824 C   0  0  0  0  0  0  0  0  0  0  0  0
    0.8248   -0.0707   -0.0188 C   0  0  0  0  0  0  0  0  0  0  0  0
    0.4226    1.2764   -0.2268 C   0  0  0  0  0  0  0  0  0  0  0  0
    1.2245    2.1880   -0.4072 O   0  0  0  0  0  0  0  0  0  0  0  0
   -0.9660    1.4364   -0.2019 N   0  0  0  0  0  0  0  0  0  0  0  0
   -1.5041    2.7676   -0.4022 C   0  0  0  0  0  0  0  0  0  0  0  0
   -1.9092    0.4074    0.0032 C   0  0  0  0  0  0  0  0  0  0  0  0
   -3.1201    0.6489    0.0080 O   0  0  0  0  0  0  0  0  0  0  0  0
   -1.4135   -0.8822    0.1982 N   0  0  0  0  0  0  0  0  0  0  0  0
   -2.3172   -1.9969    0.4160 C   0  0  0  0  0  0  0  0  0  0  0  0
    4.1341   -0.7325   -0.0317 H   0  0  0  0  0  0  0  0  0  0  0  0
    3.3650    0.4640   -1.1136 H   0  0  0  0  0  0  0  0  0  0  0  0
    3.4306    0.7574    0.6603 H   0  0  0  0  0  0  0  0  0  0  0  0
    2.6738   -2.7000    0.3478 H   0  0  0  0  0  0  0  0  0  0  0  0
   -0.7246    3.5180   -0.5552 H   0  0  0  0  0  0  0  0  0  0  0  0
   -2.1629    2.7571   -1.2768 H   0  0  0  0  0  0  0  0  0  0  0  0
   -2.0981    3.0467    0.4743 H   0  0  0  0  0  0  0  0  0  0  0  0
   -2.1004   -2.4477    1.3897 H   0  0  0  0  0  0  0  0  0  0  0  0
   -3.3639   -1.6822    0.4027 H   0  0  0  0  0  0  0  0  0  0  0  0
   -2.1657   -2.7393   -0.3740 H   0  0  0  0  0  0  0  0  0  0  0  0
  1  2  1  0
  2  3  1  0
  3  4  2  0
  4  5  1  0
  5  6  2  0
  6  7  1  0
  7  8  2  0
  7  9  1  0
  9 10  1  0
  9 11  1  0
 11 12  2  0
 11 13  1  0
 13 14  1  0
  6  2  1  0
 13  5  1  0
  1 15  1  0
  1 16  1  0
  1 17  1  0
  3 18  1  0
 10 19  1  0
 10 20  1  0
 10 21  1  0
 14 22  1  0
 14 23  1  0
 14 24  1  0
M  END
$$$$

     RDKit          3D

 24 25  0  0  0  0  0  0  0  0999 V2000
    3.2062    0.8781    0.2366 C   0  0  0  0  0  0  0  0  0  0  0  0
    2.1568   -0.0937    0.0624 N   0  0  0  0  0  0  0  0  0  0  0  0
    2.3239   -1.4408   -0.1222 C   0  0  0  0  0  0  0  0  0  0  0  0
    1.1676   -2.0611   -0.2505 N   0  0  0  0  0  0  0  0  0  0  0  0
    0.2382   -1.0710   -0.1431 C   0  0  0  0  0  0  0  0  0  0  0  0
    0.8131    0.1484    0.0495 C   0  0  0  0  0  0  0  0  0  0  0  0
    0.0652    1.3482    0.1930 C   0  0  0  0  0  0  0  0  0  0  0  0
    0.5933    2.4426    0.3662 O   0  0  0  0  0  0  0  0  0  0  0  0
   -1.3147    1.1383    0.1149 N   0  0  0  0  0  0  0  0  0  0  0  0
   -2.1892    2.2870    0.2467 C   0  0  0  0  0  0  0  0  0  0  0  0
   -1.9474   -0.1071   -0.0834 C   0  0  0  0  0  0  0  0  0  0  0  0
   -3.1781   -0.1914   -0.1385 O   0  0  0  0  0  0  0  0  0  0  0  0
   -1.1249   -1.2267   -0.2129 N   0  0  0  0  0  0  0  0  0  0  0  0
   -1.6967   -2.5447   -0.4194 C   0  0  0  0  0  0  0  0  0  0  0  0
    3.1396    1.6110   -0.5713 H   0  0  0  0  0  0  0  0  0  0  0  0
    3.0771    1.3594    1.2091 H   0  0  0  0  0  0  0  0  0  0  0  0
    4.1769    0.3769    0.1998 H   0  0  0  0  0  0  0  0  0  0  0  0
    3.2974   -1.9140   -0.1550 H   0  0  0  0  0  0  0  0  0  0  0  0
   -1.6395    3.2192    0.3980 H   0  0  0  0  0  0  0  0  0  0  0  0
   -2.8593    2.1281    1.0980 H   0  0  0  0  0  0  0  0  0  0  0  0
   -2.7973    2.3768   -0.6595 H   0  0  0  0  0  0  0  0  0  0  0  0
   -1.3287   -2.9493   -1.3676 H   0  0  0  0  0  0  0  0  0  0  0  0
   -2.7889   -2.5148   -0.4533 H   0  0  0  0  0  0  0  0  0  0  0  0
   -1.3907   -3.1997    0.4025 H   0  0  0  0  0  0  0  0  0  0  0  0
  1  2  1  0
  2  3  1  0
  3  4  2  0
  4  5  1  0
  5  6  2  0
  6  7  1  0
  7  8  2  0
  7  9  1  0
  9 10  1  0
  9 11  1  0
 11 12  2  0
 11 13  1  0
 13 14  1  0
  6  2  1  0
 13  5  1  0
  1 15  1  0
  1 16  1  0
  1 17  1  0
  3 18  1  0
 10 19  1  0
 10 20  1  0
 10 21  1  0
 14 22  1  0
 14 23  1  0
 14 24  1  0
M  END
$$$$

     RDKit          3D

 24 25  0  0  0  0  0  0  0  0999 V2000
    3.1820   -0.9828   -0.1270 C   0  0  0  0  0  0  0  0  0  0  0  0
    2.1413    0.0016   -0.2815 N   0  0  0  0  0  0  0  0  0  0  0  0
    2.3088    1.2993   -0.6872 C   0  0  0  0  0  0  0  0  0  0  0  0
    1.1617    1.9478   -0.7285 N   0  0  0  0  0  0  0  0  0  0  0  0
    0.2378    1.0274   -0.3350 C   0  0  0  0  0  0  0  0  0  0  0  0
    0.8070   -0.1773   -0.0535 C   0  0  0  0  0  0  0  0  0  0  0  0
    0.0631   -1.3084    0.3786 C   0  0  0  0  0  0  0  0  0  0  0  0
    0.5861   -2.3900    0.6298 O   0  0  0  0  0  0  0  0  0  0  0  0
   -1.3065   -1.0480    0.4814 N   0  0  0  0  0  0  0  0  0  0  0  0
   -2.1761   -2.1244    0.9139 C   0  0  0  0  0  0  0  0  0  0  0  0
   -1.9332    0.1841    0.1993 C   0  0  0  0  0  0  0  0  0  0  0  0
   -3.1548    0.3166    0.3204 O   0  0  0  0  0  0  0  0  0  0  0  0
   -1.1153    1.2344   -0.2187 N   0  0  0  0  0  0  0  0  0  0  0  0
   -1.6813    2.5345   -0.5288 C   0  0  0  0  0  0  0  0  0  0  0  0
    4.1463   -0.5376   -0.3852 H   0  0  0  0  0  0  0  0  0  0  0  0
    2.9717   -1.8199   -0.7973 H   0  0  0  0  0  0  0  0  0  0  0  0
    3.1963   -1.3137    0.9144 H   0  0  0  0  0  0  0  0  0  0  0  0
    3.2759    1.7174   -0.9378 H   0  0  0  0  0  0  0  0  0  0  0  0
   -1.6315   -3.0499    1.1162 H   0  0  0  0  0  0  0  0  0  0  0  0
   -2.6997   -1.8147    1.8243 H   0  0  0  0  0  0  0  0  0  0  0  0
   -2.9214   -2.3145    0.1345 H   0  0  0  0  0  0  0  0  0  0  0  0
   -1.4578    2.7820   -1.5714 H   0  0  0  0  0  0  0  0  0  0  0  0
   -1.2345    3.2853    0.1306 H   0  0  0  0  0  0  0  0  0  0  0  0
   -2.7656    2.5507   -0.3913 H   0  0  0  0  0  0  0  0  0  0  0  0
  1  2  1  0
  2  3  1  0
  3  4  2  0
  4  5  1  0
  5  6  2  0
  6  7  1  0
  7  8  2  0
  7  9  1  0
  9 10  1  0
  9 11  1  0
 11 12  2  0
 11 13  1  0
 13 14  1  0
  6  2  1  0
 13  5  1  0
  1 15  1  0
  1 16  1  0
  1 17  1  0
  3 18  1  0
 10 19  1  0
 10 20  1  0
 10 21  1  0
 14 22  1  0
 14 23  1  0
 14 24  1  0
M  END
$$$$

     RDKit          3D

 24 25  0  0  0  0  0  0  0  0999 V2000
    3.3143   -0.2040   -0.2847 C   0  0  0  0  0  0  0  0  0  0  0  0
    1.9943   -0.7816   -0.2762 N   0  0  0  0  0  0  0  0  0  0  0  0
    1.6884   -2.1038   -0.4631 C   0  0  0  0  0  0  0  0  0  0  0  0
    0.3889   -2.3161   -0.3980 N   0  0  0  0  0  0  0  0  0  0  0  0
   -0.1442   -1.0850   -0.1618 C   0  0  0  0  0  0  0  0  0  0  0  0
    0.8149   -0.1217   -0.0817 C   0  0  0  0  0  0  0  0  0  0  0  0
    0.5245    1.2486    0.1582 C   0  0  0  0  0  0  0  0  0  0  0  0
    1.3968    2.1092    0.2292 O   0  0  0  0  0  0  0  0  0  0  0  0
   -0.8442    1.4946    0.3010 N   0  0  0  0  0  0  0  0  0  0  0  0
   -1.2711    2.8575    0.5502 C   0  0  0  0  0  0  0  0  0  0  0  0
   -1.8666    0.5253    0.2256 C   0  0  0  0  0  0  0  0  0  0  0  0
   -3.0517    0.8414    0.3671 O   0  0  0  0  0  0  0  0  0  0  0  0
   -1.4785   -0.7934   -0.0137 N   0  0  0  0  0  0  0  0  0  0  0  0
   -2.4685   -1.8507   -0.1057 C   0  0  0  0  0  0  0  0  0  0  0  0
    3.3635    0.5400   -1.0835 H   0  0  0  0  0  0  0  0  0  0  0  0
    4.0541   -0.9880   -0.4656 H   0  0  0  0  0  0  0  0  0  0  0  0
    3.4982    0.2583    0.6883 H   0  0  0  0  0  0  0  0  0  0  0  0
    2.4405   -2.8624   -0.6409 H   0  0  0  0  0  0  0  0  0  0  0  0
   -1.8127    2.8920    1.5013 H   0  0  0  0  0  0  0  0  0  0  0  0
   -1.9539    3.1681   -0.2475 H   0  0  0  0  0  0  0  0  0  0  0  0
   -0.4347    3.5593    0.5934 H   0  0  0  0  0  0  0  0  0  0  0  0
   -3.4846   -1.4712    0.0302 H   0  0  0  0  0  0  0  0  0  0  0  0
   -2.2677   -2.5966    0.6699 H   0  0  0  0  0  0  0  0  0  0  0  0
   -2.4000   -2.3197   -1.0924 H   0  0  0  0  0  0  0  0  0  0  0  0
  1  2  1  0
  2  3  1  0
  3  4  2  0
  4  5  1  0
  5  6  2  0
  6  7  1  0
  7  8  2  0
  7  9  1  0
  9 10  1  0
  9 11  1  0
 11 12  2  0
 11 13  1  0
 13 14  1  0
  6  2  1  0
 13  5  1  0
  1 15  1  0
  1 16  1  0
  1 17  1  0
  3 18  1  0
 10 19  1  0
 10 20  1  0
 10 21  1  0
 14 22  1  0
 14 23  1  0
 14 24  1  0
M  END
$$$$

     RDKit          3D

 24 25  0  0  0  0  0  0  0  0999 V2000
   -2.4141   -2.2620   -0.4030 C   0  0  0  0  0  0  0  0  0  0  0  0
   -1.9205   -0.9084   -0.3883 N   0  0  0  0  0  0  0  0  0  0  0  0
   -2.6500    0.2217   -0.6478 C   0  0  0  0  0  0  0  0  0  0  0  0
   -1.9110    1.3095   -0.5545 N   0  0  0  0  0  0  0  0  0  0  0  0
   -0.6718    0.8500   -0.2245 C   0  0  0  0  0  0  0  0  0  0  0  0
   -0.6444   -0.5071   -0.1149 C   0  0  0  0  0  0  0  0  0  0  0  0
    0.5274   -1.2381    0.2197 C   0  0  0  0  0  0  0  0  0  0  0  0
    0.5414   -2.4616    0.3159 O   0  0  0  0  0  0  0  0  0  0  0  0
    1.6392   -0.4150    0.4219 N   0  0  0  0  0  0  0  0  0  0  0  0
    2.8994   -1.0419    0.7695 C   0  0  0  0  0  0  0  0  0  0  0  0
    1.6510    0.9920    0.3178 C   0  0  0  0  0  0  0  0  0  0  0  0
    2.6872    1.6338    0.5156 O   0  0  0  0  0  0  0  0  0  0  0  0
    0.4489    1.6167   -0.0159 N   0  0  0  0  0  0  0  0  0  0  0  0
    0.3760    3.0608   -0.1429 C   0  0  0  0  0  0  0  0  0  0  0  0
   -3.4774   -2.2596   -0.6562 H   0  0  0  0  0  0  0  0  0  0  0  0
   -1.8579   -2.8272   -1.1549 H   0  0  0  0  0  0  0  0  0  0  0  0
   -2.2733   -2.6947    0.5906 H   0  0  0  0  0  0  0  0  0  0  0  0
   -3.7036    0.1978   -0.8969 H   0  0  0  0  0  0  0  0  0  0  0  0
    2.8242   -2.1301    0.8346 H   0  0  0  0  0  0  0  0  0  0  0  0
    3.6464   -0.7826    0.0120 H   0  0  0  0  0  0  0  0  0  0  0  0
    3.2366   -0.6512    1.7352 H   0  0  0  0  0  0  0  0  0  0  0  0
    1.3409    3.5366    0.0509 H   0  0  0  0  0  0  0  0  0  0  0  0
   -0.3541    3.4463    0.5757 H   0  0  0  0  0  0  0  0  0  0  0  0
    0.0595    3.3145   -1.1596 H   0  0  0  0  0  0  0  0  0  0  0  0
  1  2  1  0
  2  3  1  0
  3  4  2  0
  4  5  1  0
  5  6  2  0
  6  7  1  0
  7  8  2  0
  7  9  1  0
  9 10  1  0
  9 11  1  0
 11 12  2  0
 11 13  1  0
 13 14  1  0
  6  2  1  0
 13  5  1  0
  1 15  1  0
  1 16  1  0
  1 17  1  0
  3 18  1  0
 10 19  1  0
 10 20  1  0
 10 21  1  0
 14 22  1  0
 14 23  1  0
 14 24  1  0
M  END
$$$$
