
     RDKit          3D

 24 25  0  0  0  0  0  0  0  0999 V2000
    2.9713   -1.5073   -0.0877 C   0  0  0  0  0  0  0  0  0  0  0  0
    2.1275   -0.3550   -0.2787 N   0  0  0  0  0  0  0  0  0  0  0  0
    2.5446    0.9075   -0.6085 C   0  0  0  0  0  0  0  0  0  0  0  0
    1.5302    1.7434   -0.7109 N   0  0  0  0  0  0  0  0  0  0  0  0
    0.4346    0.9820   -0.4361 C   0  0  0  0  0  0  0  0  0  0  0  0
    0.7675   -0.3107   -0.1666 C   0  0  0  0  0  0  0  0  0  0  0  0
   -0.1900   -1.3116    0.1512 C   0  0  0  0  0  0  0  0  0  0  0  0
    0.1207   -2.4743    0.3925 O   0  0  0  0  0  0  0  0  0  0  0  0
   -1.5004   -0.8245    0.1564 N   0  0  0  0  0  0  0  0  0  0  0  0
   -2.5721   -1.7501    0.4671 C   0  0  0  0  0  0  0  0  0  0  0  0
   -1.8850    0.5051   -0.1170 C   0  0  0  0  0  0  0  0  0  0  0  0
   -3.0730    0.8403   -0.0877 O   0  0  0  0  0  0  0  0  0  0  0  0
   -0.8696    1.4133   -0.4186 N   0  0  0  0  0  0  0  0  0  0  0  0
   -1.1808    2.8003   -0.7118 C   0  0  0  0  0  0  0  0  0  0  0  0
    2.8397   -1.8694    0.9349 H   0  0  0  0  0  0  0  0  0  0  0  0
    2.6826   -2.2738   -0.8112 H   0  0  0  0  0  0  0  0  0  0  0  0
    4.0152   -1.2251   -0.2470 H   0  0  0  0  0  0  0  0  0  0  0  0
    3.5860    1.1622   -0.7611 H   0  0  0  0  0  0  0  0  0  0  0  0
   -3.1134   -1.3852    1.3463 H   0  0  0  0  0  0  0  0  0  0  0  0
   -3.2683   -1.7846   -0.3774 H   0  0  0  0  0  0  0  0  0  0  0  0
   -2.2098   -2.7611    0.6688 H   0  0  0  0  0  0  0  0  0  0  0  0
   -2.2549    2.9969   -0.6611 H   0  0  0  0  0  0  0  0  0  0  0  0
   -0.6737    3.4418    0.0158 H   0  0  0  0  0  0  0  0  0  0  0  0
   -0.8291    3.0400   -1.7203 H   0  0  0  0  0  0  0  0  0  0  0  0
  1  2  1  0
  2  3  1  0
  3  4  2  0
  4  5  1  0
  5  6  2  0
  6  7  1  0
  7  8  2  0
  7  9  1  0
  9 10  1  0
  9 11  1  0
 11 12  2  0
 11 13  1  0
 13 14  1  0
  6  2  1  0
 13  5  1  0
  1 15  1  0
  1 16  1  0
  1 17  1  0
  3 18  1  0
 10 19  1  0
 10 20  1  0
 10 21  1  0
 14 22  1  0
 14 23  1  0
 14 24  1  0
M  END
