
     RDKit          3D

 33 34  0  0  0  0  0  0  0  0999 V2000
    5.5478    1.0813    1.0329 C   0  0  0  0  0  0  0  0  0  0  0  0
    4.4588    0.0773    0.7660 C   0  0  0  0  0  0  0  0  0  0  0  0
    4.6933   -1.0217    0.2751 O   0  0  0  0  0  0  0  0  0  0  0  0
    3.1977    0.5113    1.1014 N   0  0  0  0  0  0  0  0  0  0  0  0
    2.0215   -0.3091    0.8707 C   0  0  0  0  0  0  0  0  0  0  0  0
    1.5637   -0.2767   -0.5898 C   0  0  0  0  0  0  0  0  0  0  0  0
    0.2914   -1.0350   -0.7994 C   0  0  0  0  0  0  0  0  0  0  0  0
    0.1812   -2.3466   -1.2181 C   0  0  0  0  0  0  0  0  0  0  0  0
   -1.1470   -2.6690   -1.2811 N   0  0  0  0  0  0  0  0  0  0  0  0
   -1.9156   -1.5916   -0.9079 C   0  0  0  0  0  0  0  0  0  0  0  0
   -1.0414   -0.5497   -0.6025 C   0  0  0  0  0  0  0  0  0  0  0  0
   -1.5880    0.6824   -0.1883 C   0  0  0  0  0  0  0  0  0  0  0  0
   -2.9775    0.8396   -0.0902 C   0  0  0  0  0  0  0  0  0  0  0  0
   -3.3751    2.0834    0.3244 O   0  0  0  0  0  0  0  0  0  0  0  0
   -4.7748    2.3099    0.4287 C   0  0  0  0  0  0  0  0  0  0  0  0
   -3.8209   -0.2254   -0.4036 C   0  0  0  0  0  0  0  0  0  0  0  0
   -3.3054   -1.4609   -0.8189 C   0  0  0  0  0  0  0  0  0  0  0  0
    5.2009    1.8912    1.6806 H   0  0  0  0  0  0  0  0  0  0  0  0
    6.3822    0.5796    1.5309 H   0  0  0  0  0  0  0  0  0  0  0  0
    5.8847    1.5043    0.0830 H   0  0  0  0  0  0  0  0  0  0  0  0
    3.0622    1.4682    1.3997 H   0  0  0  0  0  0  0  0  0  0  0  0
    2.2459   -1.3379    1.1767 H   0  0  0  0  0  0  0  0  0  0  0  0
    1.2365    0.0712    1.5338 H   0  0  0  0  0  0  0  0  0  0  0  0
    1.4257    0.7637   -0.9108 H   0  0  0  0  0  0  0  0  0  0  0  0
    2.3479   -0.6885   -1.2374 H   0  0  0  0  0  0  0  0  0  0  0  0
    0.9390   -3.0756   -1.4753 H   0  0  0  0  0  0  0  0  0  0  0  0
   -1.5149   -3.5679   -1.5597 H   0  0  0  0  0  0  0  0  0  0  0  0
   -0.9357    1.5155    0.0550 H   0  0  0  0  0  0  0  0  0  0  0  0
   -4.9223    3.3421    0.7609 H   0  0  0  0  0  0  0  0  0  0  0  0
   -5.2665    2.2001   -0.5436 H   0  0  0  0  0  0  0  0  0  0  0  0
   -5.2264    1.6516    1.1782 H   0  0  0  0  0  0  0  0  0  0  0  0
   -4.9001   -0.1325   -0.3365 H   0  0  0  0  0  0  0  0  0  0  0  0
   -3.9688   -2.2847   -1.0617 H   0  0  0  0  0  0  0  0  0  0  0  0
  1  2  1  0
  2  3  2  0
  2  4  1  0
  4  5  1  0
  5  6  1  0
  6  7  1  0
  7  8  2  0
  8  9  1  0
  9 10  1  0
 10 11  1  0
 11 12  2  0
 12 13  1  0
 13 14  1  0
 14 15  1  0
 13 16  2  0
 16 17  1  0
 11  7  1  0
 17 10  2  0
  1 18  1  0
  1 19  1  0
  1 20  1  0
  4 21  1  0
  5 22  1  0
  5 23  1  0
  6 24  1  0
  6 25  1  0
  8 26  1  0
  9 27  1  0
 12 28  1  0
 15 29  1  0
 15 30  1  0
 15 31  1  0
 16 32  1  0
 17 33  1  0
M  END
$$$$

     RDKit          3D

 33 34  0  0  0  0  0  0  0  0999 V2000
    4.6182   -1.5248   -0.9838 C   0  0  0  0  0  0  0  0  0  0  0  0
    3.9520   -1.1241    0.3051 C   0  0  0  0  0  0  0  0  0  0  0  0
    4.2884   -1.5961    1.3858 O   0  0  0  0  0  0  0  0  0  0  0  0
    2.9442   -0.1998    0.1500 N   0  0  0  0  0  0  0  0  0  0  0  0
    2.0897    0.1624    1.2684 C   0  0  0  0  0  0  0  0  0  0  0  0
    1.3681    1.4949    1.0529 C   0  0  0  0  0  0  0  0  0  0  0  0
    0.4378    1.4877   -0.1238 C   0  0  0  0  0  0  0  0  0  0  0  0
    0.6514    2.1093   -1.3397 C   0  0  0  0  0  0  0  0  0  0  0  0
   -0.4319    1.8720   -2.1417 N   0  0  0  0  0  0  0  0  0  0  0  0
   -1.3542    1.0989   -1.4772 C   0  0  0  0  0  0  0  0  0  0  0  0
   -0.8405    0.8470   -0.2061 C   0  0  0  0  0  0  0  0  0  0  0  0
   -1.6120    0.0728    0.6848 C   0  0  0  0  0  0  0  0  0  0  0  0
   -2.8595   -0.4272    0.2863 C   0  0  0  0  0  0  0  0  0  0  0  0
   -3.5030   -1.1633    1.2455 O   0  0  0  0  0  0  0  0  0  0  0  0
   -4.7740   -1.6998    0.9023 C   0  0  0  0  0  0  0  0  0  0  0  0
   -3.3395   -0.1563   -0.9942 C   0  0  0  0  0  0  0  0  0  0  0  0
   -2.5961    0.6129   -1.8994 C   0  0  0  0  0  0  0  0  0  0  0  0
    4.3807   -0.8284   -1.7930 H   0  0  0  0  0  0  0  0  0  0  0  0
    5.7024   -1.5248   -0.8411 H   0  0  0  0  0  0  0  0  0  0  0  0
    4.2823   -2.5264   -1.2641 H   0  0  0  0  0  0  0  0  0  0  0  0
    2.5383   -0.1041   -0.7733 H   0  0  0  0  0  0  0  0  0  0  0  0
    1.3767   -0.6579    1.4078 H   0  0  0  0  0  0  0  0  0  0  0  0
    2.7024    0.2223    2.1751 H   0  0  0  0  0  0  0  0  0  0  0  0
    2.1105    2.2927    0.9231 H   0  0  0  0  0  0  0  0  0  0  0  0
    0.7962    1.7430    1.9554 H   0  0  0  0  0  0  0  0  0  0  0  0
    1.4793    2.7079   -1.6966 H   0  0  0  0  0  0  0  0  0  0  0  0
   -0.5472    2.2176   -3.0844 H   0  0  0  0  0  0  0  0  0  0  0  0
   -1.2453   -0.1401    1.6848 H   0  0  0  0  0  0  0  0  0  0  0  0
   -5.1474   -2.2548    1.7683 H   0  0  0  0  0  0  0  0  0  0  0  0
   -5.4926   -0.9032    0.6827 H   0  0  0  0  0  0  0  0  0  0  0  0
   -4.6935   -2.4025    0.0664 H   0  0  0  0  0  0  0  0  0  0  0  0
   -4.3022   -0.5297   -1.3287 H   0  0  0  0  0  0  0  0  0  0  0  0
   -2.9793    0.8219   -2.8931 H   0  0  0  0  0  0  0  0  0  0  0  0
  1  2  1  0
  2  3  2  0
  2  4  1  0
  4  5  1  0
  5  6  1  0
  6  7  1  0
  7  8  2  0
  8  9  1  0
  9 10  1  0
 10 11  1  0
 11 12  2  0
 12 13  1  0
 13 14  1  0
 14 15  1  0
 13 16  2  0
 16 17  1  0
 11  7  1  0
 17 10  2  0
  1 18  1  0
  1 19  1  0
  1 20  1  0
  4 21  1  0
  5 22  1  0
  5 23  1  0
  6 24  1  0
  6 25  1  0
  8 26  1  0
  9 27  1  0
 12 28  1  0
 15 29  1  0
 15 30  1  0
 15 31  1  0
 16 32  1  0
 17 33  1  0
M  END
$$$$

     RDKit          3D

 33 34  0  0  0  0  0  0  0  0999 V2000
    4.1394    2.7849   -0.3603 C   0  0  0  0  0  0  0  0  0  0  0  0
    2.9825    1.8225   -0.3593 C   0  0  0  0  0  0  0  0  0  0  0  0
    2.0956    1.8682   -1.2059 O   0  0  0  0  0  0  0  0  0  0  0  0
    3.0036    0.9149    0.6750 N   0  0  0  0  0  0  0  0  0  0  0  0
    1.9398   -0.0582    0.8461 C   0  0  0  0  0  0  0  0  0  0  0  0
    0.7001    0.5455    1.5122 C   0  0  0  0  0  0  0  0  0  0  0  0
   -0.4347   -0.4255    1.5812 C   0  0  0  0  0  0  0  0  0  0  0  0
   -0.8454   -1.1479    2.6841 C   0  0  0  0  0  0  0  0  0  0  0  0
   -1.9201   -1.9145    2.3184 N   0  0  0  0  0  0  0  0  0  0  0  0
   -2.2213   -1.7118    0.9921 C   0  0  0  0  0  0  0  0  0  0  0  0
   -1.3084   -0.7800    0.5026 C   0  0  0  0  0  0  0  0  0  0  0  0
   -1.3963   -0.3874   -0.8523 C   0  0  0  0  0  0  0  0  0  0  0  0
   -2.3888   -0.9395   -1.6697 C   0  0  0  0  0  0  0  0  0  0  0  0
   -2.5818   -0.6501   -2.9951 O   0  0  0  0  0  0  0  0  0  0  0  0
   -1.6779    0.2788   -3.5830 C   0  0  0  0  0  0  0  0  0  0  0  0
   -3.2861   -1.8694   -1.1414 C   0  0  0  0  0  0  0  0  0  0  0  0
   -3.2233   -2.2751    0.1966 C   0  0  0  0  0  0  0  0  0  0  0  0
    3.7853    3.7697   -0.0447 H   0  0  0  0  0  0  0  0  0  0  0  0
    4.5518    2.8467   -1.3712 H   0  0  0  0  0  0  0  0  0  0  0  0
    4.9361    2.4600    0.3145 H   0  0  0  0  0  0  0  0  0  0  0  0
    3.7055    0.9954    1.3988 H   0  0  0  0  0  0  0  0  0  0  0  0
    1.6916   -0.4712   -0.1386 H   0  0  0  0  0  0  0  0  0  0  0  0
    2.3429   -0.8753    1.4549 H   0  0  0  0  0  0  0  0  0  0  0  0
    0.3725    1.4401    0.9679 H   0  0  0  0  0  0  0  0  0  0  0  0
    0.9604    0.8882    2.5219 H   0  0  0  0  0  0  0  0  0  0  0  0
   -0.4685   -1.1791    3.6977 H   0  0  0  0  0  0  0  0  0  0  0  0
   -2.4254   -2.5406    2.9297 H   0  0  0  0  0  0  0  0  0  0  0  0
   -0.6821    0.3385   -1.2256 H   0  0  0  0  0  0  0  0  0  0  0  0
   -0.6493   -0.0955   -3.5507 H   0  0  0  0  0  0  0  0  0  0  0  0
   -1.9563    0.3942   -4.6350 H   0  0  0  0  0  0  0  0  0  0  0  0
   -1.7583    1.2623   -3.1084 H   0  0  0  0  0  0  0  0  0  0  0  0
   -4.0544   -2.2903   -1.7867 H   0  0  0  0  0  0  0  0  0  0  0  0
   -3.9285   -2.9985    0.5912 H   0  0  0  0  0  0  0  0  0  0  0  0
  1  2  1  0
  2  3  2  0
  2  4  1  0
  4  5  1  0
  5  6  1  0
  6  7  1  0
  7  8  2  0
  8  9  1  0
  9 10  1  0
 10 11  1  0
 11 12  2  0
 12 13  1  0
 13 14  1  0
 14 15  1  0
 13 16  2  0
 16 17  1  0
 11  7  1  0
 17 10  2  0
  1 18  1  0
  1 19  1  0
  1 20  1  0
  4 21  1  0
  5 22  1  0
  5 23  1  0
  6 24  1  0
  6 25  1  0
  8 26  1  0
  9 27  1  0
 12 28  1  0
 15 29  1  0
 15 30  1  0
 15 31  1  0
 16 32  1  0
 17 33  1  0
M  END
$$$$

     RDKit          3D

 33 34  0  0  0  0  0  0  0  0999 V2000
   -5.5391   -1.3549    0.6851 C   0  0  0  0  0  0  0  0  0  0  0  0
   -4.5019   -0.7175   -0.2005 C   0  0  0  0  0  0  0  0  0  0  0  0
   -4.6683   -0.5915   -1.4086 O   0  0  0  0  0  0  0  0  0  0  0  0
   -3.3691   -0.3099    0.4695 N   0  0  0  0  0  0  0  0  0  0  0  0
   -2.2137    0.1887   -0.2596 C   0  0  0  0  0  0  0  0  0  0  0  0
   -1.3242    1.0662    0.6209 C   0  0  0  0  0  0  0  0  0  0  0  0
   -0.0968    1.5329   -0.0930 C   0  0  0  0  0  0  0  0  0  0  0  0
    0.0526    2.7270   -0.7711 C   0  0  0  0  0  0  0  0  0  0  0  0
    1.3185    2.7727   -1.2894 N   0  0  0  0  0  0  0  0  0  0  0  0
    2.0076    1.6289   -0.9620 C   0  0  0  0  0  0  0  0  0  0  0  0
    1.1462    0.8314   -0.2106 C   0  0  0  0  0  0  0  0  0  0  0  0
    1.6200   -0.4140    0.2510 C   0  0  0  0  0  0  0  0  0  0  0  0
    2.9266   -0.8253   -0.0464 C   0  0  0  0  0  0  0  0  0  0  0  0
    3.2592   -2.0534    0.4616 O   0  0  0  0  0  0  0  0  0  0  0  0
    4.5668   -2.5344    0.1786 C   0  0  0  0  0  0  0  0  0  0  0  0
    3.7599   -0.0002   -0.8004 C   0  0  0  0  0  0  0  0  0  0  0  0
    3.3157    1.2425   -1.2724 C   0  0  0  0  0  0  0  0  0  0  0  0
   -5.5162   -2.4382    0.5410 H   0  0  0  0  0  0  0  0  0  0  0  0
   -5.3601   -1.1298    1.7403 H   0  0  0  0  0  0  0  0  0  0  0  0
   -6.5259   -0.9673    0.4169 H   0  0  0  0  0  0  0  0  0  0  0  0
   -3.2053   -0.7068    1.3857 H   0  0  0  0  0  0  0  0  0  0  0  0
   -1.6633   -0.6868   -0.6236 H   0  0  0  0  0  0  0  0  0  0  0  0
   -2.5539    0.7479   -1.1393 H   0  0  0  0  0  0  0  0  0  0  0  0
   -1.8990    1.9331    0.9719 H   0  0  0  0  0  0  0  0  0  0  0  0
   -1.0344    0.5140    1.5240 H   0  0  0  0  0  0  0  0  0  0  0  0
   -0.6370    3.5455   -0.9316 H   0  0  0  0  0  0  0  0  0  0  0  0
    1.6968    3.5334   -1.8366 H   0  0  0  0  0  0  0  0  0  0  0  0
    0.9755   -1.0612    0.8381 H   0  0  0  0  0  0  0  0  0  0  0  0
    4.6683   -3.5196    0.6438 H   0  0  0  0  0  0  0  0  0  0  0  0
    4.7178   -2.6583   -0.8989 H   0  0  0  0  0  0  0  0  0  0  0  0
    5.3304   -1.8810    0.6135 H   0  0  0  0  0  0  0  0  0  0  0  0
    4.7759   -0.2926   -1.0454 H   0  0  0  0  0  0  0  0  0  0  0  0
    3.9704    1.8782   -1.8596 H   0  0  0  0  0  0  0  0  0  0  0  0
  1  2  1  0
  2  3  2  0
  2  4  1  0
  4  5  1  0
  5  6  1  0
  6  7  1  0
  7  8  2  0
  8  9  1  0
  9 10  1  0
 10 11  1  0
 11 12  2  0
 12 13  1  0
 13 14  1  0
 14 15  1  0
 13 16  2  0
 16 17  1  0
 11  7  1  0
 17 10  2  0
  1 18  1  0
  1 19  1  0
  1 20  1  0
  4 21  1  0
  5 22  1  0
  5 23  1  0
  6 24  1  0
  6 25  1  0
  8 26  1  0
  9 27  1  0
 12 28  1  0
 15 29  1  0
 15 30  1  0
 15 31  1  0
 16 32  1  0
 17 33  1  0
M  END
$$$$

     RDKit          3D

 33 34  0  0  0  0  0  0  0  0999 V2000
    5.5933    1.2856   -0.2556 C   0  0  0  0  0  0  0  0  0  0  0  0
    4.5153    0.2418   -0.1407 C   0  0  0  0  0  0  0  0  0  0  0  0
    4.7199   -0.8505    0.3779 O   0  0  0  0  0  0  0  0  0  0  0  0
    3.2972    0.6316   -0.6463 N   0  0  0  0  0  0  0  0  0  0  0  0
    2.1311   -0.2318   -0.5793 C   0  0  0  0  0  0  0  0  0  0  0  0
    1.4762   -0.2230    0.8044 C   0  0  0  0  0  0  0  0  0  0  0  0
    0.2156   -1.0277    0.8373 C   0  0  0  0  0  0  0  0  0  0  0  0
    0.0967   -2.3444    1.2370 C   0  0  0  0  0  0  0  0  0  0  0  0
   -1.2149   -2.7148    1.1170 N   0  0  0  0  0  0  0  0  0  0  0  0
   -1.9636   -1.6640    0.6415 C   0  0  0  0  0  0  0  0  0  0  0  0
   -1.0943   -0.5898    0.4590 C   0  0  0  0  0  0  0  0  0  0  0  0
   -1.6233    0.6237   -0.0267 C   0  0  0  0  0  0  0  0  0  0  0  0
   -2.9909    0.7312   -0.3148 C   0  0  0  0  0  0  0  0  0  0  0  0
   -3.3728    1.9618   -0.7804 O   0  0  0  0  0  0  0  0  0  0  0  0
   -4.7522    2.1382   -1.0761 C   0  0  0  0  0  0  0  0  0  0  0  0
   -3.8300   -0.3651   -0.1201 C   0  0  0  0  0  0  0  0  0  0  0  0
   -3.3319   -1.5831    0.3623 C   0  0  0  0  0  0  0  0  0  0  0  0
    6.5059    0.8168   -0.6341 H   0  0  0  0  0  0  0  0  0  0  0  0
    5.3094    2.0856   -0.9450 H   0  0  0  0  0  0  0  0  0  0  0  0
    5.7810    1.7160    0.7315 H   0  0  0  0  0  0  0  0  0  0  0  0
    3.1692    1.5844   -0.9606 H   0  0  0  0  0  0  0  0  0  0  0  0
    1.4313    0.1231   -1.3441 H   0  0  0  0  0  0  0  0  0  0  0  0
    2.4327   -1.2503   -0.8514 H   0  0  0  0  0  0  0  0  0  0  0  0
    2.1785   -0.6094    1.5537 H   0  0  0  0  0  0  0  0  0  0  0  0
    1.2576    0.8102    1.1032 H   0  0  0  0  0  0  0  0  0  0  0  0
    0.8380   -3.0468    1.5961 H   0  0  0  0  0  0  0  0  0  0  0  0
   -1.5846   -3.6277    1.3425 H   0  0  0  0  0  0  0  0  0  0  0  0
   -0.9745    1.4810   -0.1781 H   0  0  0  0  0  0  0  0  0  0  0  0
   -5.3685    2.0060   -0.1806 H   0  0  0  0  0  0  0  0  0  0  0  0
   -5.0724    1.4677   -1.8804 H   0  0  0  0  0  0  0  0  0  0  0  0
   -4.8902    3.1659   -1.4257 H   0  0  0  0  0  0  0  0  0  0  0  0
   -4.8925   -0.3108   -0.3349 H   0  0  0  0  0  0  0  0  0  0  0  0
   -3.9920   -2.4314    0.5117 H   0  0  0  0  0  0  0  0  0  0  0  0
  1  2  1  0
  2  3  2  0
  2  4  1  0
  4  5  1  0
  5  6  1  0
  6  7  1  0
  7  8  2  0
  8  9  1  0
  9 10  1  0
 10 11  1  0
 11 12  2  0
 12 13  1  0
 13 14  1  0
 14 15  1  0
 13 16  2  0
 16 17  1  0
 11  7  1  0
 17 10  2  0
  1 18  1  0
  1 19  1  0
  1 20  1  0
  4 21  1  0
  5 22  1  0
  5 23  1  0
  6 24  1  0
  6 25  1  0
  8 26  1  0
  9 27  1  0
 12 28  1  0
 15 29  1  0
 15 30  1  0
 15 31  1  0
 16 32  1  0
 17 33  1  0
M  END
$$$$

     RDKit          3D

 33 34  0  0  0  0  0  0  0  0999 V2000
    5.5741    1.4127    0.4039 C   0  0  0  0  0  0  0  0  0  0  0  0
    4.5446    0.3302    0.2170 C   0  0  0  0  0  0  0  0  0  0  0  0
    4.8042   -0.7202   -0.3595 O   0  0  0  0  0  0  0  0  0  0  0  0
    3.3076    0.6393    0.7389 N   0  0  0  0  0  0  0  0  0  0  0  0
    2.1667   -0.2340    0.5129 C   0  0  0  0  0  0  0  0  0  0  0  0
    1.0829   -0.0347    1.5722 C   0  0  0  0  0  0  0  0  0  0  0  0
   -0.1259   -0.8763    1.3175 C   0  0  0  0  0  0  0  0  0  0  0  0
   -0.3790   -2.1277    1.8448 C   0  0  0  0  0  0  0  0  0  0  0  0
   -1.5843   -2.5623    1.3634 N   0  0  0  0  0  0  0  0  0  0  0  0
   -2.1315   -1.6166    0.5288 C   0  0  0  0  0  0  0  0  0  0  0  0
   -1.2400   -0.5464    0.4804 C   0  0  0  0  0  0  0  0  0  0  0  0
   -1.5734    0.5658   -0.3199 C   0  0  0  0  0  0  0  0  0  0  0  0
   -2.7745    0.5797   -1.0424 C   0  0  0  0  0  0  0  0  0  0  0  0
   -2.9755    1.7179   -1.7778 O   0  0  0  0  0  0  0  0  0  0  0  0
   -4.1691    1.7846   -2.5474 C   0  0  0  0  0  0  0  0  0  0  0  0
   -3.6420   -0.5092   -0.9687 C   0  0  0  0  0  0  0  0  0  0  0  0
   -3.3365   -1.6279   -0.1816 C   0  0  0  0  0  0  0  0  0  0  0  0
    5.7189    1.9367   -0.5444 H   0  0  0  0  0  0  0  0  0  0  0  0
    5.2666    2.1324    1.1677 H   0  0  0  0  0  0  0  0  0  0  0  0
    6.5165    0.9591    0.7231 H   0  0  0  0  0  0  0  0  0  0  0  0
    3.1165    1.6143    0.9303 H   0  0  0  0  0  0  0  0  0  0  0  0
    1.7829   -0.0057   -0.4884 H   0  0  0  0  0  0  0  0  0  0  0  0
    2.5051   -1.2768    0.5017 H   0  0  0  0  0  0  0  0  0  0  0  0
    0.7908    1.0225    1.6112 H   0  0  0  0  0  0  0  0  0  0  0  0
    1.4931   -0.2686    2.5632 H   0  0  0  0  0  0  0  0  0  0  0  0
    0.1993   -2.7464    2.5185 H   0  0  0  0  0  0  0  0  0  0  0  0
   -2.0136   -3.4501    1.5839 H   0  0  0  0  0  0  0  0  0  0  0  0
   -0.9015    1.4165   -0.3818 H   0  0  0  0  0  0  0  0  0  0  0  0
   -4.1729    2.7429   -3.0757 H   0  0  0  0  0  0  0  0  0  0  0  0
   -4.1991    0.9899   -3.3001 H   0  0  0  0  0  0  0  0  0  0  0  0
   -5.0552    1.7558   -1.9047 H   0  0  0  0  0  0  0  0  0  0  0  0
   -4.5787   -0.5257   -1.5168 H   0  0  0  0  0  0  0  0  0  0  0  0
   -4.0168   -2.4718   -0.1307 H   0  0  0  0  0  0  0  0  0  0  0  0
  1  2  1  0
  2  3  2  0
  2  4  1  0
  4  5  1  0
  5  6  1  0
  6  7  1  0
  7  8  2  0
  8  9  1  0
  9 10  1  0
 10 11  1  0
 11 12  2  0
 12 13  1  0
 13 14  1  0
 14 15  1  0
 13 16  2  0
 16 17  1  0
 11  7  1  0
 17 10  2  0
  1 18  1  0
  1 19  1  0
  1 20  1  0
  4 21  1  0
  5 22  1  0
  5 23  1  0
  6 24  1  0
  6 25  1  0
  8 26  1  0
  9 27  1  0
 12 28  1  0
 15 29  1  0
 15 30  1  0
 15 31  1  0
 16 32  1  0
 17 33  1  0
M  END
$$$$

     RDKit          3D

 33 34  0  0  0  0  0  0  0  0999 V2000
    3.1820    1.9153    1.3832 C   0  0  0  0  0  0  0  0  0  0  0  0
    3.5036    0.4734    1.0947 C   0  0  0  0  0  0  0  0  0  0  0  0
    4.6312    0.0142    1.2429 O   0  0  0  0  0  0  0  0  0  0  0  0
    2.4288   -0.2597    0.6471 N   0  0  0  0  0  0  0  0  0  0  0  0
    2.6018   -1.6242    0.1779 C   0  0  0  0  0  0  0  0  0  0  0  0
    1.2897   -2.4116    0.1407 C   0  0  0  0  0  0  0  0  0  0  0  0
    0.3059   -1.8699   -0.8533 C   0  0  0  0  0  0  0  0  0  0  0  0
    0.2480   -2.1783   -2.1988 C   0  0  0  0  0  0  0  0  0  0  0  0
   -0.7809   -1.4709   -2.7597 N   0  0  0  0  0  0  0  0  0  0  0  0
   -1.4000   -0.6970   -1.8068 C   0  0  0  0  0  0  0  0  0  0  0  0
   -0.7480   -0.9336   -0.5981 C   0  0  0  0  0  0  0  0  0  0  0  0
   -1.2034   -0.2548    0.5514 C   0  0  0  0  0  0  0  0  0  0  0  0
   -2.2821    0.6357    0.4631 C   0  0  0  0  0  0  0  0  0  0  0  0
   -2.6168    1.2329    1.6493 O   0  0  0  0  0  0  0  0  0  0  0  0
   -3.7355    2.1104    1.6362 C   0  0  0  0  0  0  0  0  0  0  0  0
   -2.9083    0.8485   -0.7640 C   0  0  0  0  0  0  0  0  0  0  0  0
   -2.4801    0.1844   -1.9215 C   0  0  0  0  0  0  0  0  0  0  0  0
    2.1034    2.0781    1.4638 H   0  0  0  0  0  0  0  0  0  0  0  0
    3.6418    2.2014    2.3333 H   0  0  0  0  0  0  0  0  0  0  0  0
    3.5788    2.5388    0.5780 H   0  0  0  0  0  0  0  0  0  0  0  0
    1.6428    0.2563    0.2680 H   0  0  0  0  0  0  0  0  0  0  0  0
    3.3133   -2.1323    0.8388 H   0  0  0  0  0  0  0  0  0  0  0  0
    3.0572   -1.5696   -0.8178 H   0  0  0  0  0  0  0  0  0  0  0  0
    1.5107   -3.4557   -0.1142 H   0  0  0  0  0  0  0  0  0  0  0  0
    0.8364   -2.4240    1.1394 H   0  0  0  0  0  0  0  0  0  0  0  0
    0.8529   -2.8408   -2.8041 H   0  0  0  0  0  0  0  0  0  0  0  0
   -1.0500   -1.5067   -3.7332 H   0  0  0  0  0  0  0  0  0  0  0  0
   -0.7224   -0.4205    1.5115 H   0  0  0  0  0  0  0  0  0  0  0  0
   -3.8817    2.4807    2.6555 H   0  0  0  0  0  0  0  0  0  0  0  0
   -3.5499    2.9757    0.9914 H   0  0  0  0  0  0  0  0  0  0  0  0
   -4.6484    1.5834    1.3394 H   0  0  0  0  0  0  0  0  0  0  0  0
   -3.7454    1.5327   -0.8618 H   0  0  0  0  0  0  0  0  0  0  0  0
   -2.9754    0.3539   -2.8723 H   0  0  0  0  0  0  0  0  0  0  0  0
  1  2  1  0
  2  3  2  0
  2  4  1  0
  4  5  1  0
  5  6  1  0
  6  7  1  0
  7  8  2  0
  8  9  1  0
  9 10  1  0
 10 11  1  0
 11 12  2  0
 12 13  1  0
 13 14  1  0
 14 15  1  0
 13 16  2  0
 16 17  1  0
 11  7  1  0
 17 10  2  0
  1 18  1  0
  1 19  1  0
  1 20  1  0
  4 21  1  0
  5 22  1  0
  5 23  1  0
  6 24  1  0
  6 25  1  0
  8 26  1  0
  9 27  1  0
 12 28  1  0
 15 29  1  0
 15 30  1  0
 15 31  1  0
 16 32  1  0
 17 33  1  0
M  END
$$$$

     RDKit          3D

 33 34  0  0  0  0  0  0  0  0999 V2000
   -2.2961    1.8108    1.8766 C   0  0  0  0  0  0  0  0  0  0  0  0
   -2.5381    1.8313    0.3911 C   0  0  0  0  0  0  0  0  0  0  0  0
   -2.6586    2.8790   -0.2355 O   0  0  0  0  0  0  0  0  0  0  0  0
   -2.5989    0.5847   -0.1874 N   0  0  0  0  0  0  0  0  0  0  0  0
   -2.6797    0.4261   -1.6296 C   0  0  0  0  0  0  0  0  0  0  0  0
   -1.3150    0.5312   -2.3209 C   0  0  0  0  0  0  0  0  0  0  0  0
   -0.3940   -0.5946   -1.9508 C   0  0  0  0  0  0  0  0  0  0  0  0
   -0.3173   -1.8279   -2.5694 C   0  0  0  0  0  0  0  0  0  0  0  0
    0.6316   -2.5750   -1.9253 N   0  0  0  0  0  0  0  0  0  0  0  0
    1.1768   -1.8578   -0.8867 C   0  0  0  0  0  0  0  0  0  0  0  0
    0.5646   -0.6058   -0.8865 C   0  0  0  0  0  0  0  0  0  0  0  0
    0.9644    0.3333    0.0865 C   0  0  0  0  0  0  0  0  0  0  0  0
    1.9436   -0.0027    1.0309 C   0  0  0  0  0  0  0  0  0  0  0  0
    2.2274    0.9943    1.9261 O   0  0  0  0  0  0  0  0  0  0  0  0
    3.2649    0.7417    2.8646 C   0  0  0  0  0  0  0  0  0  0  0  0
    2.5297   -1.2672    1.0033 C   0  0  0  0  0  0  0  0  0  0  0  0
    2.1600   -2.2171    0.0412 C   0  0  0  0  0  0  0  0  0  0  0  0
   -2.3876    0.8017    2.2879 H   0  0  0  0  0  0  0  0  0  0  0  0
   -1.2897    2.1860    2.0800 H   0  0  0  0  0  0  0  0  0  0  0  0
   -3.0354    2.4496    2.3675 H   0  0  0  0  0  0  0  0  0  0  0  0
   -2.2330   -0.2015    0.3364 H   0  0  0  0  0  0  0  0  0  0  0  0
   -3.1376   -0.5514   -1.8169 H   0  0  0  0  0  0  0  0  0  0  0  0
   -3.3501    1.1954   -2.0288 H   0  0  0  0  0  0  0  0  0  0  0  0
   -0.8407    1.4909   -2.0832 H   0  0  0  0  0  0  0  0  0  0  0  0
   -1.4681    0.5195   -3.4073 H   0  0  0  0  0  0  0  0  0  0  0  0
   -0.8578   -2.2357   -3.4136 H   0  0  0  0  0  0  0  0  0  0  0  0
    0.8966   -3.5186   -2.1716 H   0  0  0  0  0  0  0  0  0  0  0  0
    0.5189    1.3240    0.1043 H   0  0  0  0  0  0  0  0  0  0  0  0
    2.9978   -0.0825    3.5342 H   0  0  0  0  0  0  0  0  0  0  0  0
    3.3880    1.6404    3.4766 H   0  0  0  0  0  0  0  0  0  0  0  0
    4.2176    0.5496    2.3600 H   0  0  0  0  0  0  0  0  0  0  0  0
    3.2901   -1.5546    1.7226 H   0  0  0  0  0  0  0  0  0  0  0  0
    2.6256   -3.1972    0.0236 H   0  0  0  0  0  0  0  0  0  0  0  0
  1  2  1  0
  2  3  2  0
  2  4  1  0
  4  5  1  0
  5  6  1  0
  6  7  1  0
  7  8  2  0
  8  9  1  0
  9 10  1  0
 10 11  1  0
 11 12  2  0
 12 13  1  0
 13 14  1  0
 14 15  1  0
 13 16  2  0
 16 17  1  0
 11  7  1  0
 17 10  2  0
  1 18  1  0
  1 19  1  0
  1 20  1  0
  4 21  1  0
  5 22  1  0
  5 23  1  0
  6 24  1  0
  6 25  1  0
  8 26  1  0
  9 27  1  0
 12 28  1  0
 15 29  1  0
 15 30  1  0
 15 31  1  0
 16 32  1  0
 17 33  1  0
M  END
$$$$
