
     RDKit          3D

 33 34  0  0  0  0  0  0  0  0999 V2000
    5.5508    1.4313    0.4726 C   0  0  0  0  0  0  0  0  0  0  0  0
    4.4469    0.4579    0.7871 C   0  0  0  0  0  0  0  0  0  0  0  0
    4.5092   -0.3104    1.7409 O   0  0  0  0  0  0  0  0  0  0  0  0
    3.3742    0.5260   -0.0706 N   0  0  0  0  0  0  0  0  0  0  0  0
    2.1989   -0.3086    0.1088 C   0  0  0  0  0  0  0  0  0  0  0  0
    1.2657    0.2229    1.1998 C   0  0  0  0  0  0  0  0  0  0  0  0
    0.0070   -0.5784    1.3054 C   0  0  0  0  0  0  0  0  0  0  0  0
   -0.2272   -1.6208    2.1808 C   0  0  0  0  0  0  0  0  0  0  0  0
   -1.4924   -2.0929    1.9606 N   0  0  0  0  0  0  0  0  0  0  0  0
   -2.0964   -1.3802    0.9515 C   0  0  0  0  0  0  0  0  0  0  0  0
   -1.1813   -0.4205    0.5220 C   0  0  0  0  0  0  0  0  0  0  0  0
   -1.5644    0.4504   -0.5187 C   0  0  0  0  0  0  0  0  0  0  0  0
   -2.8366    0.3409   -1.0970 C   0  0  0  0  0  0  0  0  0  0  0  0
   -3.0798    1.2452   -2.0970 O   0  0  0  0  0  0  0  0  0  0  0  0
   -4.3601    1.1945   -2.7130 C   0  0  0  0  0  0  0  0  0  0  0  0
   -3.7253   -0.6320   -0.6414 C   0  0  0  0  0  0  0  0  0  0  0  0
   -3.3717   -1.5104    0.3919 C   0  0  0  0  0  0  0  0  0  0  0  0
    5.5354    2.2393    1.2087 H   0  0  0  0  0  0  0  0  0  0  0  0
    5.4399    1.8586   -0.5279 H   0  0  0  0  0  0  0  0  0  0  0  0
    6.5107    0.9095    0.5164 H   0  0  0  0  0  0  0  0  0  0  0  0
    3.3398    1.2560   -0.7697 H   0  0  0  0  0  0  0  0  0  0  0  0
    1.6866   -0.3445   -0.8591 H   0  0  0  0  0  0  0  0  0  0  0  0
    2.5257   -1.3272    0.3501 H   0  0  0  0  0  0  0  0  0  0  0  0
    1.0148    1.2711    0.9930 H   0  0  0  0  0  0  0  0  0  0  0  0
    1.7831    0.2239    2.1674 H   0  0  0  0  0  0  0  0  0  0  0  0
    0.4031   -2.0646    2.9408 H   0  0  0  0  0  0  0  0  0  0  0  0
   -1.9244   -2.8556    2.4632 H   0  0  0  0  0  0  0  0  0  0  0  0
   -0.8769    1.2111   -0.8757 H   0  0  0  0  0  0  0  0  0  0  0  0
   -5.1555    1.4004   -1.9891 H   0  0  0  0  0  0  0  0  0  0  0  0
   -4.5191    0.2341   -3.2145 H   0  0  0  0  0  0  0  0  0  0  0  0
   -4.3948    1.9776   -3.4765 H   0  0  0  0  0  0  0  0  0  0  0  0
   -4.7162   -0.7401   -1.0706 H   0  0  0  0  0  0  0  0  0  0  0  0
   -4.0696   -2.2645    0.7412 H   0  0  0  0  0  0  0  0  0  0  0  0
  1  2  1  0
  2  3  2  0
  2  4  1  0
  4  5  1  0
  5  6  1  0
  6  7  1  0
  7  8  2  0
  8  9  1  0
  9 10  1  0
 10 11  1  0
 11 12  2  0
 12 13  1  0
 13 14  1  0
 14 15  1  0
 13 16  2  0
 16 17  1  0
 11  7  1  0
 17 10  2  0
  1 18  1  0
  1 19  1  0
  1 20  1  0
  4 21  1  0
  5 22  1  0
  5 23  1  0
  6 24  1  0
  6 25  1  0
  8 26  1  0
  9 27  1  0
 12 28  1  0
 15 29  1  0
 15 30  1  0
 15 31  1  0
 16 32  1  0
 17 33  1  0
M  END
