
     RDKit          3D

 24 25  0  0  0  0  0  0  0  0999 V2000
    4.3643    0.0750    0.7716 C   0  0  0  0  0  0  0  0  0  0  0  0
    3.5279   -1.1777    0.5895 C   0  0  0  0  0  0  0  0  0  0  0  0
    2.1343   -0.8432    0.5661 O   0  0  0  0  0  0  0  0  0  0  0  0
    1.6232   -0.4932   -0.6494 C   0  0  0  0  0  0  0  0  0  0  0  0
    2.2700   -0.4447   -1.6895 O   0  0  0  0  0  0  0  0  0  0  0  0
    0.2171   -0.1855   -0.5360 C   0  0  0  0  0  0  0  0  0  0  0  0
   -0.6933    0.2119   -1.5002 C   0  0  0  0  0  0  0  0  0  0  0  0
   -1.9425    0.3807   -0.8500 C   0  0  0  0  0  0  0  0  0  0  0  0
   -3.2383    0.7594   -1.2421 C   0  0  0  0  0  0  0  0  0  0  0  0
   -4.2471    0.8104   -0.2689 C   0  0  0  0  0  0  0  0  0  0  0  0
   -3.9782    0.4928    1.0654 C   0  0  0  0  0  0  0  0  0  0  0  0
   -2.6953    0.1139    1.4741 C   0  0  0  0  0  0  0  0  0  0  0  0
   -1.7156    0.0728    0.4851 C   0  0  0  0  0  0  0  0  0  0  0  0
   -0.4134   -0.2695    0.6788 O   0  0  0  0  0  0  0  0  0  0  0  0
    4.0601    0.6122    1.6760 H   0  0  0  0  0  0  0  0  0  0  0  0
    5.4259   -0.1756    0.8502 H   0  0  0  0  0  0  0  0  0  0  0  0
    4.2291    0.7636   -0.0683 H   0  0  0  0  0  0  0  0  0  0  0  0
    3.8218   -1.7294   -0.3107 H   0  0  0  0  0  0  0  0  0  0  0  0
    3.6815   -1.8488    1.4410 H   0  0  0  0  0  0  0  0  0  0  0  0
   -0.4705    0.3597   -2.5481 H   0  0  0  0  0  0  0  0  0  0  0  0
   -3.4586    1.0083   -2.2758 H   0  0  0  0  0  0  0  0  0  0  0  0
   -5.2547    1.1019   -0.5587 H   0  0  0  0  0  0  0  0  0  0  0  0
   -4.7794    0.5405    1.8002 H   0  0  0  0  0  0  0  0  0  0  0  0
   -2.4685   -0.1356    2.5034 H   0  0  0  0  0  0  0  0  0  0  0  0
  1  2  1  0
  2  3  1  0
  3  4  1  0
  4  5  2  0
  4  6  1  0
  6  7  2  0
  7  8  1  0
  8  9  2  0
  9 10  1  0
 10 11  2  0
 11 12  1  0
 12 13  2  0
 13 14  1  0
 14  6  1  0
 13  8  1  0
  1 15  1  0
  1 16  1  0
  1 17  1  0
  2 18  1  0
  2 19  1  0
  7 20  1  0
  9 21  1  0
 10 22  1  0
 11 23  1  0
 12 24  1  0
M  END
$$$$

     RDKit          3D

 24 25  0  0  0  0  0  0  0  0999 V2000
   -4.4447    0.6162    0.1075 C   0  0  0  0  0  0  0  0  0  0  0  0
   -3.7198   -0.7046    0.2861 C   0  0  0  0  0  0  0  0  0  0  0  0
   -2.3386   -0.5645   -0.0756 O   0  0  0  0  0  0  0  0  0  0  0  0
   -1.5056   -0.1295    0.9172 C   0  0  0  0  0  0  0  0  0  0  0  0
   -1.8687    0.1414    2.0553 O   0  0  0  0  0  0  0  0  0  0  0  0
   -0.1571   -0.0418    0.4087 C   0  0  0  0  0  0  0  0  0  0  0  0
    0.3928   -0.3078   -0.8349 C   0  0  0  0  0  0  0  0  0  0  0  0
    1.7828   -0.0378   -0.7442 C   0  0  0  0  0  0  0  0  0  0  0  0
    2.8800   -0.1009   -1.6208 C   0  0  0  0  0  0  0  0  0  0  0  0
    4.1467    0.2615   -1.1392 C   0  0  0  0  0  0  0  0  0  0  0  0
    4.3230    0.6779    0.1834 C   0  0  0  0  0  0  0  0  0  0  0  0
    3.2431    0.7469    1.0697 C   0  0  0  0  0  0  0  0  0  0  0  0
    1.9991    0.3808    0.5618 C   0  0  0  0  0  0  0  0  0  0  0  0
    0.8320    0.3796    1.2595 O   0  0  0  0  0  0  0  0  0  0  0  0
   -5.5111    0.5054    0.3229 H   0  0  0  0  0  0  0  0  0  0  0  0
   -4.0324    1.3840    0.7697 H   0  0  0  0  0  0  0  0  0  0  0  0
   -4.3274    0.9834   -0.9174 H   0  0  0  0  0  0  0  0  0  0  0  0
   -3.8294   -1.0891    1.3066 H   0  0  0  0  0  0  0  0  0  0  0  0
   -4.1511   -1.4537   -0.3860 H   0  0  0  0  0  0  0  0  0  0  0  0
   -0.1502   -0.6557   -1.7026 H   0  0  0  0  0  0  0  0  0  0  0  0
    2.7552   -0.4228   -2.6502 H   0  0  0  0  0  0  0  0  0  0  0  0
    5.0049    0.2174   -1.8067 H   0  0  0  0  0  0  0  0  0  0  0  0
    5.3164    0.9535    0.5315 H   0  0  0  0  0  0  0  0  0  0  0  0
    3.3602    1.0671    2.0978 H   0  0  0  0  0  0  0  0  0  0  0  0
  1  2  1  0
  2  3  1  0
  3  4  1  0
  4  5  2  0
  4  6  1  0
  6  7  2  0
  7  8  1  0
  8  9  2  0
  9 10  1  0
 10 11  2  0
 11 12  1  0
 12 13  2  0
 13 14  1  0
 14  6  1  0
 13  8  1  0
  1 15  1  0
  1 16  1  0
  1 17  1  0
  2 18  1  0
  2 19  1  0
  7 20  1  0
  9 21  1  0
 10 22  1  0
 11 23  1  0
 12 24  1  0
M  END
$$$$

     RDKit          3D

 24 25  0  0  0  0  0  0  0  0999 V2000
    4.3757    0.0782    0.8144 C   0  0  0  0  0  0  0  0  0  0  0  0
    3.6044    1.0281   -0.0825 C   0  0  0  0  0  0  0  0  0  0  0  0
    2.1943    0.8375    0.0911 O   0  0  0  0  0  0  0  0  0  0  0  0
    1.6223   -0.1325   -0.6789 C   0  0  0  0  0  0  0  0  0  0  0  0
    2.2285   -0.8325   -1.4820 O   0  0  0  0  0  0  0  0  0  0  0  0
    0.2061   -0.2193   -0.4114 C   0  0  0  0  0  0  0  0  0  0  0  0
   -0.7583   -1.0516   -0.9533 C   0  0  0  0  0  0  0  0  0  0  0  0
   -1.9913   -0.7182   -0.3368 C   0  0  0  0  0  0  0  0  0  0  0  0
   -3.3191   -1.1699   -0.4324 C   0  0  0  0  0  0  0  0  0  0  0  0
   -4.2945   -0.5656    0.3745 C   0  0  0  0  0  0  0  0  0  0  0  0
   -3.9617    0.4651    1.2579 C   0  0  0  0  0  0  0  0  0  0  0  0
   -2.6461    0.9276    1.3667 C   0  0  0  0  0  0  0  0  0  0  0  0
   -1.7009    0.3079    0.5529 C   0  0  0  0  0  0  0  0  0  0  0  0
   -0.3758    0.6120    0.5109 O   0  0  0  0  0  0  0  0  0  0  0  0
    4.1731   -0.9643    0.5496 H   0  0  0  0  0  0  0  0  0  0  0  0
    4.0741    0.2058    1.8592 H   0  0  0  0  0  0  0  0  0  0  0  0
    5.4518    0.2561    0.7334 H   0  0  0  0  0  0  0  0  0  0  0  0
    3.8967    0.9152   -1.1328 H   0  0  0  0  0  0  0  0  0  0  0  0
    3.8248    2.0622    0.2020 H   0  0  0  0  0  0  0  0  0  0  0  0
   -0.5809   -1.8081   -1.7056 H   0  0  0  0  0  0  0  0  0  0  0  0
   -3.5891   -1.9699   -1.1152 H   0  0  0  0  0  0  0  0  0  0  0  0
   -5.3262   -0.9056    0.3105 H   0  0  0  0  0  0  0  0  0  0  0  0
   -4.7380    0.9165    1.8724 H   0  0  0  0  0  0  0  0  0  0  0  0
   -2.3698    1.7250    2.0456 H   0  0  0  0  0  0  0  0  0  0  0  0
  1  2  1  0
  2  3  1  0
  3  4  1  0
  4  5  2  0
  4  6  1  0
  6  7  2  0
  7  8  1  0
  8  9  2  0
  9 10  1  0
 10 11  2  0
 11 12  1  0
 12 13  2  0
 13 14  1  0
 14  6  1  0
 13  8  1  0
  1 15  1  0
  1 16  1  0
  1 17  1  0
  2 18  1  0
  2 19  1  0
  7 20  1  0
  9 21  1  0
 10 22  1  0
 11 23  1  0
 12 24  1  0
M  END
$$$$

     RDKit          3D

 24 25  0  0  0  0  0  0  0  0999 V2000
    4.4191    0.5105    1.1707 C   0  0  0  0  0  0  0  0  0  0  0  0
    3.7102   -0.0123   -0.0635 C   0  0  0  0  0  0  0  0  0  0  0  0
    2.3002    0.0431    0.1742 O   0  0  0  0  0  0  0  0  0  0  0  0
    1.5358   -0.4018   -0.8646 C   0  0  0  0  0  0  0  0  0  0  0  0
    1.9845   -0.8204   -1.9260 O   0  0  0  0  0  0  0  0  0  0  0  0
    0.1329   -0.3096   -0.5369 C   0  0  0  0  0  0  0  0  0  0  0  0
   -0.9848   -0.6453   -1.2816 C   0  0  0  0  0  0  0  0  0  0  0  0
   -2.1206   -0.3539   -0.4835 C   0  0  0  0  0  0  0  0  0  0  0  0
   -3.5138   -0.4581   -0.6392 C   0  0  0  0  0  0  0  0  0  0  0  0
   -4.3407   -0.0520    0.4186 C   0  0  0  0  0  0  0  0  0  0  0  0
   -3.7989    0.4470    1.6064 C   0  0  0  0  0  0  0  0  0  0  0  0
   -2.4153    0.5579    1.7795 C   0  0  0  0  0  0  0  0  0  0  0  0
   -1.6212    0.1469    0.7118 C   0  0  0  0  0  0  0  0  0  0  0  0
   -0.2615    0.1752    0.6835 O   0  0  0  0  0  0  0  0  0  0  0  0
    5.5042    0.4877    1.0365 H   0  0  0  0  0  0  0  0  0  0  0  0
    4.1584   -0.0902    2.0484 H   0  0  0  0  0  0  0  0  0  0  0  0
    4.1107    1.5390    1.3857 H   0  0  0  0  0  0  0  0  0  0  0  0
    4.0135   -1.0481   -0.2528 H   0  0  0  0  0  0  0  0  0  0  0  0
    3.9649    0.6113   -0.9278 H   0  0  0  0  0  0  0  0  0  0  0  0
   -0.9703   -1.0523   -2.2834 H   0  0  0  0  0  0  0  0  0  0  0  0
   -3.9458   -0.8443   -1.5576 H   0  0  0  0  0  0  0  0  0  0  0  0
   -5.4209   -0.1273    0.3113 H   0  0  0  0  0  0  0  0  0  0  0  0
   -4.4632    0.7549    2.4113 H   0  0  0  0  0  0  0  0  0  0  0  0
   -1.9777    0.9422    2.6927 H   0  0  0  0  0  0  0  0  0  0  0  0
  1  2  1  0
  2  3  1  0
  3  4  1  0
  4  5  2  0
  4  6  1  0
  6  7  2  0
  7  8  1  0
  8  9  2  0
  9 10  1  0
 10 11  2  0
 11 12  1  0
 12 13  2  0
 13 14  1  0
 14  6  1  0
 13  8  1  0
  1 15  1  0
  1 16  1  0
  1 17  1  0
  2 18  1  0
  2 19  1  0
  7 20  1  0
  9 21  1  0
 10 22  1  0
 11 23  1  0
 12 24  1  0
M  END
$$$$

     RDKit          3D

 24 25  0  0  0  0  0  0  0  0999 V2000
    4.3148    1.1503    0.2334 C   0  0  0  0  0  0  0  0  0  0  0  0
    3.7954   -0.0920   -0.4656 C   0  0  0  0  0  0  0  0  0  0  0  0
    2.3698   -0.0202   -0.6092 O   0  0  0  0  0  0  0  0  0  0  0  0
    1.6417   -0.4796    0.4527 C   0  0  0  0  0  0  0  0  0  0  0  0
    2.1292   -0.9272    1.4834 O   0  0  0  0  0  0  0  0  0  0  0  0
    0.2334   -0.3479    0.1625 C   0  0  0  0  0  0  0  0  0  0  0  0
   -0.4533    0.1346   -0.9399 C   0  0  0  0  0  0  0  0  0  0  0  0
   -1.8382    0.0163   -0.6549 C   0  0  0  0  0  0  0  0  0  0  0  0
   -3.0343    0.3152   -1.3303 C   0  0  0  0  0  0  0  0  0  0  0  0
   -4.2530    0.0423   -0.6916 C   0  0  0  0  0  0  0  0  0  0  0  0
   -4.2864   -0.5151    0.5897 C   0  0  0  0  0  0  0  0  0  0  0  0
   -3.1066   -0.8190    1.2769 C   0  0  0  0  0  0  0  0  0  0  0  0
   -1.9135   -0.5366    0.6165 C   0  0  0  0  0  0  0  0  0  0  0  0
   -0.6667   -0.7574    1.1120 O   0  0  0  0  0  0  0  0  0  0  0  0
    3.9098    1.2296    1.2472 H   0  0  0  0  0  0  0  0  0  0  0  0
    4.0048    2.0521   -0.3047 H   0  0  0  0  0  0  0  0  0  0  0  0
    5.4066    1.1332    0.2940 H   0  0  0  0  0  0  0  0  0  0  0  0
    4.0994   -1.0055    0.0582 H   0  0  0  0  0  0  0  0  0  0  0  0
    4.2153   -0.1475   -1.4754 H   0  0  0  0  0  0  0  0  0  0  0  0
   -0.0026    0.5253   -1.8416 H   0  0  0  0  0  0  0  0  0  0  0  0
   -3.0208    0.7484   -2.3259 H   0  0  0  0  0  0  0  0  0  0  0  0
   -5.1867    0.2686   -1.2027 H   0  0  0  0  0  0  0  0  0  0  0  0
   -5.2454   -0.7169    1.0625 H   0  0  0  0  0  0  0  0  0  0  0  0
   -3.1125   -1.2512    2.2701 H   0  0  0  0  0  0  0  0  0  0  0  0
  1  2  1  0
  2  3  1  0
  3  4  1  0
  4  5  2  0
  4  6  1  0
  6  7  2  0
  7  8  1  0
  8  9  2  0
  9 10  1  0
 10 11  2  0
 11 12  1  0
 12 13  2  0
 13 14  1  0
 14  6  1  0
 13  8  1  0
  1 15  1  0
  1 16  1  0
  1 17  1  0
  2 18  1  0
  2 19  1  0
  7 20  1  0
  9 21  1  0
 10 22  1  0
 11 23  1  0
 12 24  1  0
M  END
$$$$

     RDKit          3D

 24 25  0  0  0  0  0  0  0  0999 V2000
   -4.3497    0.7575   -0.0762 C   0  0  0  0  0  0  0  0  0  0  0  0
   -3.5811    0.4973    1.2057 C   0  0  0  0  0  0  0  0  0  0  0  0
   -2.1721    0.4795    0.9430 O   0  0  0  0  0  0  0  0  0  0  0  0
   -1.6514   -0.7192    0.5517 C   0  0  0  0  0  0  0  0  0  0  0  0
   -2.3015   -1.7487    0.4109 O   0  0  0  0  0  0  0  0  0  0  0  0
   -0.2304   -0.6019    0.3242 C   0  0  0  0  0  0  0  0  0  0  0  0
    0.6932   -1.5508   -0.0795 C   0  0  0  0  0  0  0  0  0  0  0  0
    1.9538   -0.9040   -0.1463 C   0  0  0  0  0  0  0  0  0  0  0  0
    3.2650   -1.2863   -0.4789 C   0  0  0  0  0  0  0  0  0  0  0  0
    4.2815   -0.3214   -0.4223 C   0  0  0  0  0  0  0  0  0  0  0  0
    4.0050    0.9954   -0.0439 C   0  0  0  0  0  0  0  0  0  0  0  0
    2.7067    1.3942    0.2905 C   0  0  0  0  0  0  0  0  0  0  0  0
    1.7198    0.4138    0.2247 C   0  0  0  0  0  0  0  0  0  0  0  0
    0.4028    0.6002    0.5094 O   0  0  0  0  0  0  0  0  0  0  0  0
   -5.4224    0.8319    0.1231 H   0  0  0  0  0  0  0  0  0  0  0  0
   -4.1841   -0.0436   -0.8035 H   0  0  0  0  0  0  0  0  0  0  0  0
   -4.0119    1.6877   -0.5448 H   0  0  0  0  0  0  0  0  0  0  0  0
   -3.7640    1.3110    1.9151 H   0  0  0  0  0  0  0  0  0  0  0  0
   -3.9093   -0.4298    1.6895 H   0  0  0  0  0  0  0  0  0  0  0  0
    0.4717   -2.5865   -0.2978 H   0  0  0  0  0  0  0  0  0  0  0  0
    3.4913   -2.3065   -0.7743 H   0  0  0  0  0  0  0  0  0  0  0  0
    5.3009   -0.6039   -0.6772 H   0  0  0  0  0  0  0  0  0  0  0  0
    4.8124    1.7241   -0.0083 H   0  0  0  0  0  0  0  0  0  0  0  0
    2.4739    2.4099    0.5859 H   0  0  0  0  0  0  0  0  0  0  0  0
  1  2  1  0
  2  3  1  0
  3  4  1  0
  4  5  2  0
  4  6  1  0
  6  7  2  0
  7  8  1  0
  8  9  2  0
  9 10  1  0
 10 11  2  0
 11 12  1  0
 12 13  2  0
 13 14  1  0
 14  6  1  0
 13  8  1  0
  1 15  1  0
  1 16  1  0
  1 17  1  0
  2 18  1  0
  2 19  1  0
  7 20  1  0
  9 21  1  0
 10 22  1  0
 11 23  1  0
 12 24  1  0
M  END
$$$$

     RDKit          3D

 24 25  0  0  0  0  0  0  0  0999 V2000
   -4.3550    0.6841   -0.5304 C   0  0  0  0  0  0  0  0  0  0  0  0
   -3.6769   -0.0763    0.5937 C   0  0  0  0  0  0  0  0  0  0  0  0
   -2.2532    0.0555    0.4920 O   0  0  0  0  0  0  0  0  0  0  0  0
   -1.6244   -0.8494   -0.3122 C   0  0  0  0  0  0  0  0  0  0  0  0
   -2.1914   -1.7380   -0.9378 O   0  0  0  0  0  0  0  0  0  0  0  0
   -0.2006   -0.6101   -0.3241 C   0  0  0  0  0  0  0  0  0  0  0  0
    0.8134   -1.2734   -0.9937 C   0  0  0  0  0  0  0  0  0  0  0  0
    2.0296   -0.6272   -0.6544 C   0  0  0  0  0  0  0  0  0  0  0  0
    3.3859   -0.7981   -0.9824 C   0  0  0  0  0  0  0  0  0  0  0  0
    4.3283    0.0771   -0.4227 C   0  0  0  0  0  0  0  0  0  0  0  0
    3.9356    1.1008    0.4441 C   0  0  0  0  0  0  0  0  0  0  0  0
    2.5910    1.2862    0.7820 C   0  0  0  0  0  0  0  0  0  0  0  0
    1.6797    0.4016    0.2105 C   0  0  0  0  0  0  0  0  0  0  0  0
    0.3346    0.4153    0.4124 O   0  0  0  0  0  0  0  0  0  0  0  0
   -4.0429    1.7336   -0.5276 H   0  0  0  0  0  0  0  0  0  0  0  0
   -4.0786    0.2724   -1.5062 H   0  0  0  0  0  0  0  0  0  0  0  0
   -5.4429    0.6390   -0.4280 H   0  0  0  0  0  0  0  0  0  0  0  0
   -3.9810   -1.1292    0.6069 H   0  0  0  0  0  0  0  0  0  0  0  0
   -3.9700    0.3539    1.5571 H   0  0  0  0  0  0  0  0  0  0  0  0
    0.6793   -2.1235   -1.6485 H   0  0  0  0  0  0  0  0  0  0  0  0
    3.7023   -1.5899   -1.6548 H   0  0  0  0  0  0  0  0  0  0  0  0
    5.3815   -0.0439   -0.6682 H   0  0  0  0  0  0  0  0  0  0  0  0
    4.6874    1.7659    0.8643 H   0  0  0  0  0  0  0  0  0  0  0  0
    2.2684    2.0738    1.4519 H   0  0  0  0  0  0  0  0  0  0  0  0
  1  2  1  0
  2  3  1  0
  3  4  1  0
  4  5  2  0
  4  6  1  0
  6  7  2  0
  7  8  1  0
  8  9  2  0
  9 10  1  0
 10 11  2  0
 11 12  1  0
 12 13  2  0
 13 14  1  0
 14  6  1  0
 13  8  1  0
  1 15  1  0
  1 16  1  0
  1 17  1  0
  2 18  1  0
  2 19  1  0
  7 20  1  0
  9 21  1  0
 10 22  1  0
 11 23  1  0
 12 24  1  0
M  END
$$$$

     RDKit          3D

 24 25  0  0  0  0  0  0  0  0999 V2000
    4.4991    0.5950   -1.0697 C   0  0  0  0  0  0  0  0  0  0  0  0
    3.7180    0.5597    0.2295 C   0  0  0  0  0  0  0  0  0  0  0  0
    2.3386    0.3380   -0.0852 O   0  0  0  0  0  0  0  0  0  0  0  0
    1.5179    0.2842    1.0069 C   0  0  0  0  0  0  0  0  0  0  0  0
    1.9024    0.4112    2.1632 O   0  0  0  0  0  0  0  0  0  0  0  0
    0.1583    0.0585    0.5775 C   0  0  0  0  0  0  0  0  0  0  0  0
   -0.4125   -0.1017   -0.6748 C   0  0  0  0  0  0  0  0  0  0  0  0
   -1.8045   -0.2940   -0.4786 C   0  0  0  0  0  0  0  0  0  0  0  0
   -2.9182   -0.5082   -1.3093 C   0  0  0  0  0  0  0  0  0  0  0  0
   -4.1805   -0.6572   -0.7158 C   0  0  0  0  0  0  0  0  0  0  0  0
   -4.3364   -0.5954    0.6718 C   0  0  0  0  0  0  0  0  0  0  0  0
   -3.2399   -0.3831    1.5138 C   0  0  0  0  0  0  0  0  0  0  0  0
   -2.0008   -0.2390    0.8948 C   0  0  0  0  0  0  0  0  0  0  0  0
   -0.8198   -0.0267    1.5344 O   0  0  0  0  0  0  0  0  0  0  0  0
    4.1257    1.3911   -1.7224 H   0  0  0  0  0  0  0  0  0  0  0  0
    5.5631    0.7627   -0.8810 H   0  0  0  0  0  0  0  0  0  0  0  0
    4.3807   -0.3464   -1.6163 H   0  0  0  0  0  0  0  0  0  0  0  0
    4.0894   -0.2548    0.8615 H   0  0  0  0  0  0  0  0  0  0  0  0
    3.8296    1.5156    0.7535 H   0  0  0  0  0  0  0  0  0  0  0  0
    0.1184   -0.0813   -1.6164 H   0  0  0  0  0  0  0  0  0  0  0  0
   -2.8092   -0.5581   -2.3884 H   0  0  0  0  0  0  0  0  0  0  0  0
   -5.0514   -0.8235   -1.3467 H   0  0  0  0  0  0  0  0  0  0  0  0
   -5.3268   -0.7143    1.1065 H   0  0  0  0  0  0  0  0  0  0  0  0
   -3.3411   -0.3322    2.5911 H   0  0  0  0  0  0  0  0  0  0  0  0
  1  2  1  0
  2  3  1  0
  3  4  1  0
  4  5  2  0
  4  6  1  0
  6  7  2  0
  7  8  1  0
  8  9  2  0
  9 10  1  0
 10 11  2  0
 11 12  1  0
 12 13  2  0
 13 14  1  0
 14  6  1  0
 13  8  1  0
  1 15  1  0
  1 16  1  0
  1 17  1  0
  2 18  1  0
  2 19  1  0
  7 20  1  0
  9 21  1  0
 10 22  1  0
 11 23  1  0
 12 24  1  0
M  END
$$$$
