
     RDKit          3D

 24 25  0  0  0  0  0  0  0  0999 V2000
   -4.3733    0.2063    0.5485 C   0  0  0  0  0  0  0  0  0  0  0  0
   -3.6491    0.6255   -0.7169 C   0  0  0  0  0  0  0  0  0  0  0  0
   -2.2313    0.6007   -0.5071 O   0  0  0  0  0  0  0  0  0  0  0  0
   -1.6160   -0.5984   -0.7183 C   0  0  0  0  0  0  0  0  0  0  0  0
   -2.1903   -1.6254   -1.0615 O   0  0  0  0  0  0  0  0  0  0  0  0
   -0.1967   -0.4865   -0.4776 C   0  0  0  0  0  0  0  0  0  0  0  0
    0.8045   -1.4383   -0.5669 C   0  0  0  0  0  0  0  0  0  0  0  0
    2.0218   -0.7969   -0.2226 C   0  0  0  0  0  0  0  0  0  0  0  0
    3.3691   -1.1842   -0.1178 C   0  0  0  0  0  0  0  0  0  0  0  0
    4.3166   -0.2239    0.2662 C   0  0  0  0  0  0  0  0  0  0  0  0
    3.9377    1.0931    0.5409 C   0  0  0  0  0  0  0  0  0  0  0  0
    2.6020    1.4968    0.4420 C   0  0  0  0  0  0  0  0  0  0  0  0
    1.6854    0.5209    0.0587 C   0  0  0  0  0  0  0  0  0  0  0  0
    0.3473    0.7123   -0.0941 O   0  0  0  0  0  0  0  0  0  0  0  0
   -5.4567    0.2787    0.4174 H   0  0  0  0  0  0  0  0  0  0  0  0
   -4.0760    0.8410    1.3898 H   0  0  0  0  0  0  0  0  0  0  0  0
   -4.1226   -0.8233    0.8224 H   0  0  0  0  0  0  0  0  0  0  0  0
   -3.9172    1.6568   -0.9690 H   0  0  0  0  0  0  0  0  0  0  0  0
   -3.9378    0.0013   -1.5704 H   0  0  0  0  0  0  0  0  0  0  0  0
    0.6614   -2.4726   -0.8486 H   0  0  0  0  0  0  0  0  0  0  0  0
    3.6749   -2.2045   -0.3288 H   0  0  0  0  0  0  0  0  0  0  0  0
    5.3630   -0.5102    0.3513 H   0  0  0  0  0  0  0  0  0  0  0  0
    4.6931    1.8181    0.8370 H   0  0  0  0  0  0  0  0  0  0  0  0
    2.2901    2.5127    0.6510 H   0  0  0  0  0  0  0  0  0  0  0  0
  1  2  1  0
  2  3  1  0
  3  4  1  0
  4  5  2  0
  4  6  1  0
  6  7  2  0
  7  8  1  0
  8  9  2  0
  9 10  1  0
 10 11  2  0
 11 12  1  0
 12 13  2  0
 13 14  1  0
 14  6  1  0
 13  8  1  0
  1 15  1  0
  1 16  1  0
  1 17  1  0
  2 18  1  0
  2 19  1  0
  7 20  1  0
  9 21  1  0
 10 22  1  0
 11 23  1  0
 12 24  1  0
M  END
