target_20260928_0
     RDKit          3D

 30 32  0  0  0  0  0  0  0  0999 V2000
   -5.7790    0.2541    0.6053 C   0  0  0  0  0  0  0  0  0  0  0  0
   -4.5800   -0.3217    1.1070 O   0  0  0  0  0  0  0  0  0  0  0  0
   -3.4156    0.0122    0.4671 C   0  0  0  0  0  0  0  0  0  0  0  0
   -3.3024    0.8674   -0.6294 C   0  0  0  0  0  0  0  0  0  0  0  0
   -2.0567    1.1427   -1.2109 C   0  0  0  0  0  0  0  0  0  0  0  0
   -0.9302    0.5291   -0.6542 C   0  0  0  0  0  0  0  0  0  0  0  0
    0.3966    0.6121   -1.0072 N   0  0  0  0  0  0  0  0  0  0  0  0
    1.1797   -0.1672   -0.1833 C   0  0  0  0  0  0  0  0  0  0  0  0
    0.3180   -0.7512    0.7299 C   0  0  0  0  0  0  0  0  0  0  0  0
   -1.0073   -0.3267    0.4398 C   0  0  0  0  0  0  0  0  0  0  0  0
   -2.2693   -0.5880    1.0065 C   0  0  0  0  0  0  0  0  0  0  0  0
    2.6338   -0.2625   -0.3194 C   0  0  0  0  0  0  0  0  0  0  0  0
    3.2458   -0.2556   -1.5807 C   0  0  0  0  0  0  0  0  0  0  0  0
    4.6357   -0.3448   -1.6991 C   0  0  0  0  0  0  0  0  0  0  0  0
    5.4290   -0.4430   -0.5582 C   0  0  0  0  0  0  0  0  0  0  0  0
    4.8337   -0.4561    0.7009 C   0  0  0  0  0  0  0  0  0  0  0  0
    3.4441   -0.3685    0.8190 C   0  0  0  0  0  0  0  0  0  0  0  0
   -5.9665   -0.0604   -0.4267 H   0  0  0  0  0  0  0  0  0  0  0  0
   -5.7585    1.3456    0.6898 H   0  0  0  0  0  0  0  0  0  0  0  0
   -6.6076   -0.1112    1.2197 H   0  0  0  0  0  0  0  0  0  0  0  0
   -4.1732    1.3459   -1.0660 H   0  0  0  0  0  0  0  0  0  0  0  0
   -1.9776    1.8095   -2.0633 H   0  0  0  0  0  0  0  0  0  0  0  0
    0.7507    1.1872   -1.7573 H   0  0  0  0  0  0  0  0  0  0  0  0
    0.6082   -1.4273    1.5236 H   0  0  0  0  0  0  0  0  0  0  0  0
   -2.3570   -1.2529    1.8607 H   0  0  0  0  0  0  0  0  0  0  0  0
    2.6492   -0.2039   -2.4876 H   0  0  0  0  0  0  0  0  0  0  0  0
    5.0977   -0.3448   -2.6830 H   0  0  0  0  0  0  0  0  0  0  0  0
    6.5096   -0.5138   -0.6501 H   0  0  0  0  0  0  0  0  0  0  0  0
    5.4490   -0.5339    1.5935 H   0  0  0  0  0  0  0  0  0  0  0  0
    2.9999   -0.3722    1.8117 H   0  0  0  0  0  0  0  0  0  0  0  0
  1  2  1  0
  2  3  1  0
  3  4  2  0
  4  5  1  0
  5  6  2  0
  6  7  1  0
  7  8  1  0
  8  9  2  0
  9 10  1  0
 10 11  2  0
  8 12  1  0
 12 13  2  0
 13 14  1  0
 14 15  2  0
 15 16  1  0
 16 17  2  0
 11  3  1  0
 10  6  1  0
 17 12  1  0
  1 18  1  0
  1 19  1  0
  1 20  1  0
  4 21  1  0
  5 22  1  0
  7 23  1  0
  9 24  1  0
 11 25  1  0
 13 26  1  0
 14 27  1  0
 15 28  1  0
 16 29  1  0
 17 30  1  0
M  END
>  <coordinate_phase>  (1) 
MMFF94_after_optimization_status_retained

>  <molecule_id>  (1) 
target

>  <seed>  (1) 
20260928

>  <conformer_id>  (1) 
0

>  <optimization_status>  (1) 
0

>  <energy_kcal_mol>  (1) 
32.56589274864027

>  <sasa_A2>  (1) 
455.53558409805447

>  <sasa_orientation_sd_A2>  (1) 
3.0341294755315293

>  <sasa_orientation_range_A2>  (1) 
11.355094444662484

>  <sasa_first_half_vs_all_abs_delta_A2>  (1) 
0.8832486329769154

>  <mass_weighted_Rg_A>  (1) 
3.6294963461171776

>  <unweighted_Rg_A>  (1) 
4.141514024239807

$$$$
target_20260928_1
     RDKit          3D

 30 32  0  0  0  0  0  0  0  0999 V2000
    5.3013    1.2083   -0.4153 C   0  0  0  0  0  0  0  0  0  0  0  0
    4.9074   -0.1407   -0.1994 O   0  0  0  0  0  0  0  0  0  0  0  0
    3.5620   -0.3862   -0.1174 C   0  0  0  0  0  0  0  0  0  0  0  0
    3.2318   -1.7257    0.0995 C   0  0  0  0  0  0  0  0  0  0  0  0
    1.9022   -2.1478    0.2085 C   0  0  0  0  0  0  0  0  0  0  0  0
    0.9095   -1.1712    0.0923 C   0  0  0  0  0  0  0  0  0  0  0  0
   -0.4600   -1.2831    0.1541 N   0  0  0  0  0  0  0  0  0  0  0  0
   -1.0666   -0.0567   -0.0093 C   0  0  0  0  0  0  0  0  0  0  0  0
   -0.0442    0.8585   -0.1951 C   0  0  0  0  0  0  0  0  0  0  0  0
    1.1996    0.1720   -0.1263 C   0  0  0  0  0  0  0  0  0  0  0  0
    2.5487    0.5732   -0.2326 C   0  0  0  0  0  0  0  0  0  0  0  0
   -2.5189    0.1236    0.0009 C   0  0  0  0  0  0  0  0  0  0  0  0
   -3.1205    1.0601   -0.8503 C   0  0  0  0  0  0  0  0  0  0  0  0
   -4.5066    1.2375   -0.8513 C   0  0  0  0  0  0  0  0  0  0  0  0
   -5.3069    0.4827    0.0030 C   0  0  0  0  0  0  0  0  0  0  0  0
   -4.7223   -0.4474    0.8594 C   0  0  0  0  0  0  0  0  0  0  0  0
   -3.3359   -0.6259    0.8590 C   0  0  0  0  0  0  0  0  0  0  0  0
    4.9817    1.8505    0.4120 H   0  0  0  0  0  0  0  0  0  0  0  0
    4.9261    1.5807   -1.3742 H   0  0  0  0  0  0  0  0  0  0  0  0
    6.3946    1.2351   -0.4534 H   0  0  0  0  0  0  0  0  0  0  0  0
    4.0288   -2.4614    0.1862 H   0  0  0  0  0  0  0  0  0  0  0  0
    1.6618   -3.1920    0.3767 H   0  0  0  0  0  0  0  0  0  0  0  0
   -0.9536   -2.1545    0.2803 H   0  0  0  0  0  0  0  0  0  0  0  0
   -0.1756    1.9210   -0.3533 H   0  0  0  0  0  0  0  0  0  0  0  0
    2.7621    1.6211   -0.4022 H   0  0  0  0  0  0  0  0  0  0  0  0
   -2.5146    1.6532   -1.5313 H   0  0  0  0  0  0  0  0  0  0  0  0
   -4.9590    1.9648   -1.5203 H   0  0  0  0  0  0  0  0  0  0  0  0
   -6.3848    0.6224    0.0040 H   0  0  0  0  0  0  0  0  0  0  0  0
   -5.3443   -1.0304    1.5337 H   0  0  0  0  0  0  0  0  0  0  0  0
   -2.9038   -1.3414    1.5536 H   0  0  0  0  0  0  0  0  0  0  0  0
  1  2  1  0
  2  3  1  0
  3  4  2  0
  4  5  1  0
  5  6  2  0
  6  7  1  0
  7  8  1  0
  8  9  2  0
  9 10  1  0
 10 11  2  0
  8 12  1  0
 12 13  2  0
 13 14  1  0
 14 15  2  0
 15 16  1  0
 16 17  2  0
 11  3  1  0
 10  6  1  0
 17 12  1  0
  1 18  1  0
  1 19  1  0
  1 20  1  0
  4 21  1  0
  5 22  1  0
  7 23  1  0
  9 24  1  0
 11 25  1  0
 13 26  1  0
 14 27  1  0
 15 28  1  0
 16 29  1  0
 17 30  1  0
M  END
>  <coordinate_phase>  (2) 
MMFF94_after_optimization_status_retained

>  <molecule_id>  (2) 
target

>  <seed>  (2) 
20260928

>  <conformer_id>  (2) 
1

>  <optimization_status>  (2) 
0

>  <energy_kcal_mol>  (2) 
32.21464906560709

>  <sasa_A2>  (2) 
455.64204933299976

>  <sasa_orientation_sd_A2>  (2) 
1.8889447137294166

>  <sasa_orientation_range_A2>  (2) 
8.889333141962936

>  <sasa_first_half_vs_all_abs_delta_A2>  (2) 
0.182271285201125

>  <mass_weighted_Rg_A>  (2) 
3.5852566626708655

>  <unweighted_Rg_A>  (2) 
4.041499154830855

$$$$
