target_20260928_0
     RDKit          3D

 30 32  0  0  0  0  0  0  0  0999 V2000
   -5.7572    0.3305    0.6580 C   0  0  0  0  0  0  0  0  0  0  0  0
   -4.5332   -0.0681    1.2661 O   0  0  0  0  0  0  0  0  0  0  0  0
   -3.3505    0.0938    0.5563 C   0  0  0  0  0  0  0  0  0  0  0  0
   -3.2869    0.6208   -0.7110 C   0  0  0  0  0  0  0  0  0  0  0  0
   -2.0697    0.7645   -1.3873 C   0  0  0  0  0  0  0  0  0  0  0  0
   -0.8983    0.3633   -0.7587 C   0  0  0  0  0  0  0  0  0  0  0  0
    0.3801    0.3919   -1.1787 N   0  0  0  0  0  0  0  0  0  0  0  0
    1.1626   -0.1104   -0.2030 C   0  0  0  0  0  0  0  0  0  0  0  0
    0.3608   -0.4665    0.8626 C   0  0  0  0  0  0  0  0  0  0  0  0
   -0.9540   -0.1686    0.5183 C   0  0  0  0  0  0  0  0  0  0  0  0
   -2.1721   -0.3033    1.1734 C   0  0  0  0  0  0  0  0  0  0  0  0
    2.6139   -0.2322   -0.3140 C   0  0  0  0  0  0  0  0  0  0  0  0
    3.2246    0.1851   -1.4722 C   0  0  0  0  0  0  0  0  0  0  0  0
    4.6131    0.0686   -1.5786 C   0  0  0  0  0  0  0  0  0  0  0  0
    5.3482   -0.4575   -0.5334 C   0  0  0  0  0  0  0  0  0  0  0  0
    4.7373   -0.8846    0.6480 C   0  0  0  0  0  0  0  0  0  0  0  0
    3.3555   -0.7559    0.7236 C   0  0  0  0  0  0  0  0  0  0  0  0
   -5.7661   -0.0570   -0.3904 H   0  0  0  0  0  0  0  0  0  0  0  0
   -5.7444    1.4334    0.5846 H   0  0  0  0  0  0  0  0  0  0  0  0
   -6.6307   -0.0684    1.2041 H   0  0  0  0  0  0  0  0  0  0  0  0
   -4.1775    0.9317   -1.2030 H   0  0  0  0  0  0  0  0  0  0  0  0
   -2.0523    1.1904   -2.4022 H   0  0  0  0  0  0  0  0  0  0  0  0
    0.6738    0.7441   -2.0950 H   0  0  0  0  0  0  0  0  0  0  0  0
    0.6976   -0.9039    1.8072 H   0  0  0  0  0  0  0  0  0  0  0  0
   -2.1623   -0.7264    2.1742 H   0  0  0  0  0  0  0  0  0  0  0  0
    2.7015    0.6038   -2.3211 H   0  0  0  0  0  0  0  0  0  0  0  0
    5.0907    0.3995   -2.4949 H   0  0  0  0  0  0  0  0  0  0  0  0
    6.4292   -0.5370   -0.6428 H   0  0  0  0  0  0  0  0  0  0  0  0
    5.3010   -1.2957    1.4676 H   0  0  0  0  0  0  0  0  0  0  0  0
    2.8655   -1.0857    1.6406 H   0  0  0  0  0  0  0  0  0  0  0  0
  1  2  1  0
  2  3  1  0
  3  4  2  0
  4  5  1  0
  5  6  2  0
  6  7  1  0
  7  8  1  0
  8  9  2  0
  9 10  1  0
 10 11  2  0
  8 12  1  0
 12 13  2  0
 13 14  1  0
 14 15  2  0
 15 16  1  0
 16 17  2  0
 11  3  1  0
 10  6  1  0
 17 12  1  0
  1 18  1  0
  1 19  1  0
  1 20  1  0
  4 21  1  0
  5 22  1  0
  7 23  1  0
  9 24  1  0
 11 25  1  0
 13 26  1  0
 14 27  1  0
 15 28  1  0
 16 29  1  0
 17 30  1  0
M  END
>  <coordinate_phase>  (1) 
ETKDG_before_MMFF

>  <molecule_id>  (1) 
target

>  <seed>  (1) 
20260928

>  <conformer_id>  (1) 
0

$$$$
target_20260928_1
     RDKit          3D

 30 32  0  0  0  0  0  0  0  0999 V2000
    5.3100    1.1771   -0.7643 C   0  0  0  0  0  0  0  0  0  0  0  0
    4.8016   -0.0108   -0.2420 O   0  0  0  0  0  0  0  0  0  0  0  0
    3.4909   -0.3471   -0.0501 C   0  0  0  0  0  0  0  0  0  0  0  0
    3.1990   -1.5927    0.4884 C   0  0  0  0  0  0  0  0  0  0  0  0
    1.8879   -1.9989    0.7099 C   0  0  0  0  0  0  0  0  0  0  0  0
    0.8689   -1.1182    0.3752 C   0  0  0  0  0  0  0  0  0  0  0  0
   -0.4615   -1.2701    0.4897 N   0  0  0  0  0  0  0  0  0  0  0  0
   -1.0778   -0.1428    0.0354 C   0  0  0  0  0  0  0  0  0  0  0  0
   -0.0766    0.7337   -0.3735 C   0  0  0  0  0  0  0  0  0  0  0  0
    1.1579    0.1319   -0.1652 C   0  0  0  0  0  0  0  0  0  0  0  0
    2.4695    0.5310   -0.3836 C   0  0  0  0  0  0  0  0  0  0  0  0
   -2.5217    0.1212   -0.0220 C   0  0  0  0  0  0  0  0  0  0  0  0
   -3.0299    1.3099   -0.5063 C   0  0  0  0  0  0  0  0  0  0  0  0
   -4.3947    1.4845   -0.5289 C   0  0  0  0  0  0  0  0  0  0  0  0
   -5.2584    0.4897   -0.0750 C   0  0  0  0  0  0  0  0  0  0  0  0
   -4.7573   -0.7202    0.4186 C   0  0  0  0  0  0  0  0  0  0  0  0
   -3.3737   -0.8701    0.4300 C   0  0  0  0  0  0  0  0  0  0  0  0
    5.2049    2.0010   -0.0318 H   0  0  0  0  0  0  0  0  0  0  0  0
    4.8964    1.4311   -1.7666 H   0  0  0  0  0  0  0  0  0  0  0  0
    6.4126    1.0137   -0.9424 H   0  0  0  0  0  0  0  0  0  0  0  0
    4.0204   -2.2521    0.7368 H   0  0  0  0  0  0  0  0  0  0  0  0
    1.6489   -2.9697    1.1301 H   0  0  0  0  0  0  0  0  0  0  0  0
   -0.9439   -2.1237    0.8695 H   0  0  0  0  0  0  0  0  0  0  0  0
   -0.2462    1.7370   -0.7922 H   0  0  0  0  0  0  0  0  0  0  0  0
    2.6818    1.4956   -0.8002 H   0  0  0  0  0  0  0  0  0  0  0  0
   -2.3288    2.0585   -0.8498 H   0  0  0  0  0  0  0  0  0  0  0  0
   -4.8242    2.4057   -0.9029 H   0  0  0  0  0  0  0  0  0  0  0  0
   -6.3397    0.6205   -0.0897 H   0  0  0  0  0  0  0  0  0  0  0  0
   -5.4199   -1.4999    0.7738 H   0  0  0  0  0  0  0  0  0  0  0  0
   -2.9962   -1.8256    0.8204 H   0  0  0  0  0  0  0  0  0  0  0  0
  1  2  1  0
  2  3  1  0
  3  4  2  0
  4  5  1  0
  5  6  2  0
  6  7  1  0
  7  8  1  0
  8  9  2  0
  9 10  1  0
 10 11  2  0
  8 12  1  0
 12 13  2  0
 13 14  1  0
 14 15  2  0
 15 16  1  0
 16 17  2  0
 11  3  1  0
 10  6  1  0
 17 12  1  0
  1 18  1  0
  1 19  1  0
  1 20  1  0
  4 21  1  0
  5 22  1  0
  7 23  1  0
  9 24  1  0
 11 25  1  0
 13 26  1  0
 14 27  1  0
 15 28  1  0
 16 29  1  0
 17 30  1  0
M  END
>  <coordinate_phase>  (2) 
ETKDG_before_MMFF

>  <molecule_id>  (2) 
target

>  <seed>  (2) 
20260928

>  <conformer_id>  (2) 
1

$$$$
